##TITLE=Ref Molecule 5
Group Service
H1_COSY_HiRes_Night C6D6 /mnt/nmrdata/Service n82265as 10
##JCAMPDX= 6.0         $$ Bruker NMR JCAMP-DX V2.0
##DATA TYPE= nD NMR SPECTRUM
##DATA CLASS= NTUPLES
##NUM DIM= 2
##ORIGIN= Bruker BioSpin GmbH
##OWNER= nmrsu
##LONG DATE= 2024/11/29 17:37:57+0000
$$ TopSpin 4.3.0
$$ 2024-12-03 11:04:53.523 +0000  DS\n82265as@E-10LXXG2310KN9
$$ Compression mode = diff/dup
##.OBSERVE FREQUENCY= 400.072200385
##.OBSERVE NUCLEUS= ^1H
##.ACQUISITION MODE= SIMULTANEOUS (DQD)
##.ACQUISITION SCHEME= NOT PHASE SENSITIVE
##.AVERAGES= 4
##.DIGITISER RES= 23
##SPECTROMETER/DATA SYSTEM= spect
##.PULSE SEQUENCE= cosygpqf
##.SOLVENT NAME= C6D6
##.SHIFT REFERENCE= INTERNAL, C6D6, 1, 11.4932
##AUDIT TRAIL= $$ (NUMBER, WHEN, WHO, WHERE, PROCESS, VERSION, WHAT)
$$ ##TITLE= Audit trail, TopSpin 3.6.2
$$ ##JCAMPDX= 5.01
$$ ##ORIGIN= Bruker BioSpin GmbH
$$ ##OWNER= nmrsu
$$ $$ /mnt/nasr/NMR/Service/data/n82265as/nmr/20241129-1030-B400_B.11-10/13/pdata/1/auditp.txt
$$ ##AUDIT TRAIL=  $$ (NUMBER, WHEN, WHO, WHERE, PROCESS, VERSION, WHAT)
(   1,<2024-11-29 18:02:13.460 +0000>,<nmrsu>,<cyan.ch.man.ac.uk>,<go4>,<TopSpin 3.6.2>,
      <created by zg
	started at 2024-11-29 17:37:28.836 +0000,
	POWCHK enabled, PULCHK disabled,
       configuration hash MD5:
       8C 5D 46 0C A2 3E D5 4A BD 0F A1 73 8E 42 3A 9B
       data hash MD5: 1K * 169
       90 2D AD 7F 16 30 A3 69 3B 16 47 3E 64 75 BD 02>)
(   2,<2024-11-29 18:02:13.502 +0000>,<nmrsu>,<cyan.ch.man.ac.uk>,<audit>,<TopSpin 3.6.2>,
      <user comment:
       ICON-NMR User ID: n82265as
       data hash MD5: 1K * 169
       90 2D AD 7F 16 30 A3 69 3B 16 47 3E 64 75 BD 02>)
(   3,<2024-11-29 18:02:14.521 +0000>,<nmrsu>,<cyan.ch.man.ac.uk>,<proc2d>,<TopSpin 3.6.2>,
      <Start of raw data processing
       xf2 nd2d nodisp F2: SI = 1K WDW = 4 SSB = 0 FT_mod = 6 PKNL = 1 F1: SI = 1K
       data hash MD5: 1K * 1K
       1C 8E DE D5 99 42 52 4A 1F 3E AB 42 22 47 27 C4>)
(   4,<2024-11-29 18:02:19.837 +0000>,<nmrsu>,<cyan.ch.man.ac.uk>,<mddnmr>,<TopSpin 3.6.2>,
      <mdd: parameter modification due to missing license
       Mdd_mod = cs Mdd_CsALG = ist
       data hash MD5: 1K * 1K
       5C F7 5E 5E 33 0E 10 C3 DE CA 8C 5A D6 49 CB 3A>)
(   5,<2024-11-29 18:02:20.173 +0000>,<nmrsu>,<cyan.ch.man.ac.uk>,<proc2d>,<TopSpin 3.6.2>,
      <xf1 F1: SI = 1K ME_mod = 2 NCOEF = 32 WDW = 4 SSB = 0 FT_mod = 6 FCOR = 0.5 PH_mod = 2
       data hash MD5: 1K * 1K
       AD 28 52 82 FF 12 EF 15 A3 2D 4D 79 02 EE FB 21>)
(   6,<2024-11-29 18:02:20.276 +0000>,<nmrsu>,<cyan.ch.man.ac.uk>,<proc2d>,<TopSpin 3.6.2>,
      <abs2 F2: ABSG = 5 ABSF1 = 11.4932 ABSF2 = -0.4931931
       data hash MD5: 1K * 1K
       2B 90 94 F9 D5 34 D6 02 42 D8 BB 31 64 0F 7E DC>)
(   7,<2024-11-29 18:02:20.362 +0000>,<nmrsu>,<cyan.ch.man.ac.uk>,<proc2d>,<TopSpin 3.6.2>,
      <abs1 F1: ABSG = 5 ABSF1 = 11.49128 ABSF2 = -0.4912831
       data hash MD5: 1K * 1K
       B3 27 DE 49 FC CC EF A6 EF FA E1 97 BF 9C 0B 3E>)
(   8,<2024-11-29 18:02:20.392 +0000>,<nmrsu>,<cyan.ch.man.ac.uk>,<proc2d>,<TopSpin 3.6.2>,
      <sym
       data hash MD5: 1K * 1K
       48 FE 6A B5 2B 40 D0 6B 34 68 16 5B 1D 80 E9 56>)
(   9,<2024-11-29 18:02:21.956 +0000>,<nmrsu>,<cyan.ch.man.ac.uk>,<dirdata>,<TopSpin 3.6.2>,
      <wrpa from 1 13 "20241129-1030-B400_B.11-10" "/mnt/nmrdata/Service/data/n82265as/nmr"
       data hash MD5: 1K * 1K
       48 FE 6A B5 2B 40 D0 6B 34 68 16 5B 1D 80 E9 56>)
$$ $$ C:/Bruker/TopSpin4.3.0/prog/curdir/DS-n82265as/jcamp/pid_10848/audit.tmp
(  10,<2024-12-03T11:04:54.010+0000>,<DS\n82265as>,<E-10LXXG2310KN9>,<jcamp>,<TopSpin 4.3.0>,
      <Unknown data manipulation detected
       data hash MD5: 1K * 1K
       54 65 2A 12 0D 14 C6 A5 9E F7 B2 29 86 5F 82 7F>)
$$ ##END=
$$ 
$$ $$ hash MD5
$$ $$ 4A 61 7D 0F CC 52 14 CF CC F1 92 BB 43 EA F3 2C
##$RELAX= 
##$BRUKER FILE EXP=format.temp
$$ EDIT_PAR COMMAND FILE
$$ 
$$ DI_MODE         LONG
$$ ED_ENTRY        ACQU
$$ ORDER           FILE
$$ 
$$ 
$$ HEADER		"F2 - Acquisition Parameters"
$$ T_NAME		Date_
$$ 		TYPE	R64
$$ 		CLASS	ACQU
$$ 		SUBRANGE 0.0 50000000
$$ 		REL	"Date_=itodate(DATE)"
$$ 		INV_REL	"DATE=datetoi(Date_,DATE)"
$$ 		FORMAT	"%14.0f"
$$ 		TEXT	" "
$$ END
$$ T_NAME		Time
$$ 		TYPE	R32
$$ 		CLASS	ACQU
$$ 		SUBRANGE 0.0 1000000
$$ 		REL	"Time=itotime(DATE)"
$$ 		INV_REL	"DATE=timetoi(Time,DATE)"
$$ 		FORMAT	"%14.2f h"
$$ 		TEXT	" "
$$ END
$$ NAME		INSTRUM
$$ 		TEXT	" "
$$ END
$$ NAME		PROBHD
$$ 		FORMAT	"%14.14s"
$$ 		TEXT	" "
$$ END
$$ NAME		PULPROG
$$ 		TEXT	" "
$$ END
$$ NAME		TD
$$ 		TEXT	" "
$$ END
$$ NAME		SOLVENT
$$ 		TEXT	" "
$$ END
$$ NAME		NS
$$ 		TEXT	" "
$$ END
$$ NAME		DS
$$ 		TEXT	" "
$$ END
$$ T_NAME		SWH
$$ 		TYPE	R32
$$ 		CLASS	ACQU
$$ 		SUBRANGE 0.0 1e8
$$ 		REL	"SWH=SW*SFO1"
$$ 		INV_REL "SW=SWH/SFO1"
$$ 		UNIT	"Hz"
$$ 		FORMAT	"%14.3f Hz"
$$ 		TEXT	" "
$$ END
$$ T_NAME          FIDRES
$$                 TYPE    R32
$$                 CLASS   ACQU
$$                 SUBRANGE 0.0 100000
$$                 REL     "FIDRES=2*SW*SFO1/TD"
$$                 INV_REL "TD = nextpow(2*SW*SFO1/FIDRES)"
$$ 		UNIT	"Hz"
$$ 		FORMAT	"%14.6f Hz"
$$ 		TEXT	" "
$$ END
$$ T_NAME          AQ
$$ 		TYPE	R32
$$ 		CLASS	ACQU
$$ 		SUBRANGE 0.0 1000
$$ 		REL	"AQ=aqcalc(SW,SFO1,TD,DIGTYP)"
$$ 		INV_REL	"TD=tdcalc(SW,SFO1,1.0e6*AQ,DIGTYP)"
$$ 		UNIT	"sec"
$$ 		FORMAT	"%14.7f sec"
$$ 		TEXT	" "
$$ END
$$ NAME		RG
$$ 		TEXT	" "
$$ END
$$ T_NAME          DW
$$ 		TYPE	R32
$$ 		CLASS	ACQU
$$ 		SUBRANGE 0.0 1000000
$$ 		REL	"DW=1/(2*SW*SFO1)"
$$ 		INV_REL	"SW=1000000/(2*(0.005+DW)*SFO1)"
$$ 		UNIT	"usec"
$$ 		FORMAT	"%14.3lf usec"
$$ 		TEXT	" "
$$ END
$$ NAME		DE
$$ 		FORMAT	"%14.2f usec"
$$ 		TEXT	" "
$$ END
$$ NAME		TE
$$ 		FORMAT	"%14.1f K"
$$ 		TEXT	" "
$$ END
$$ T_NAME		D0
$$ 		TYPE	R32
$$ 		CLASS	ACQU
$$ 		SUBRANGE 0.0 1e38
$$ 		REL	"D0=D[0]"
$$ 		INV_REL	"D[0]=D0"
$$ 		UNIT	"sec"
$$ 		FORMAT	"%14.8f sec"
$$ 		TEXT	" "
$$ END
$$ T_NAME		D1
$$ 		TYPE	R32
$$ 		CLASS	ACQU
$$ 		SUBRANGE 0.0 1e38
$$ 		REL	"D1=D[1]"
$$ 		INV_REL	"D[1]=D1"
$$ 		UNIT	"sec"
$$ 		FORMAT	"%14.8f sec"
$$ 		TEXT	" "
$$ END
$$ T_NAME		D13
$$ 		TYPE	R32
$$ 		CLASS	ACQU
$$ 		SUBRANGE 0.0 1e38
$$ 		REL	"D13=D[13]"
$$ 		INV_REL	"D[13]=D13"
$$ 		UNIT	"sec"
$$ 		FORMAT	"%14.8f sec"
$$ 		TEXT	" "
$$ END
$$ T_NAME		D16
$$ 		TYPE	R32
$$ 		CLASS	ACQU
$$ 		SUBRANGE 0.0 1e38
$$ 		REL	"D16=D[16]"
$$ 		INV_REL	"D[16]=D16"
$$ 		UNIT	"sec"
$$ 		FORMAT	"%14.8f sec"
$$ 		TEXT	" "
$$ END
$$ T_NAME		IN0
$$ 		TYPE	R32
$$ 		CLASS	ACQU
$$ 		SUBRANGE 0.0 1e38
$$ 		REL	"IN0=IN[0]"
$$ 		INV_REL	"IN[0]=IN0"
$$ 		UNIT	"sec"
$$ 		FORMAT	"%14.8f sec"
$$ 		TEXT	" "
$$ END
$$ T_NAME		SPARSELIST
$$ 		TYPE	I32
$$ 		SUBRANGE 0 2147483647
$$ 		CLASS	ACQU
$$ 		REL	"SPARSELIST=             0"
$$ 		INV_REL	"D[0]=SPARSELIST"
$$ 		UNIT	"no"
$$ 		TEXT	" "
$$ 		FORMAT	"%14d"
$$ 		NONEDIT
$$ END
$$ NAME		TDav
$$ 		TEXT	" "
$$ END
$$ NAME		SFO1
$$ 		FORMAT	"%14.7f MHz"
$$ 		TEXT	" "
$$ END
$$ NAME		NUC1
$$ 		NONEDIT
$$ 		TEXT	" "
$$ END
$$ T_NAME		P0
$$ 		TYPE	R32
$$ 		CLASS	ACQU
$$ 		SUBRANGE 0.0 1.0e10
$$ 		REL	"P0=P[0]"
$$ 		INV_REL	"P[0]=P0"
$$ 		UNIT	"usec"
$$ 		FORMAT	"%14.2f usec"
$$ 		TEXT	" "
$$ END
$$ T_NAME		P1
$$ 		TYPE	R32
$$ 		CLASS	ACQU
$$ 		SUBRANGE 0.0 1.0e10
$$ 		REL	"P1=P[1]"
$$ 		INV_REL	"P[1]=P1"
$$ 		UNIT	"usec"
$$ 		FORMAT	"%14.2f usec"
$$ 		TEXT	" "
$$ END
$$ T_NAME		PLW1
$$ 		TYPE	R32
$$ 		CLASS	ACQU
$$ 		REL	"PLW1=PLW[1]"
$$ 		INV_REL	"PLW[1]=PLW1"
$$ 		UNIT	"W"
$$ 		FORMAT	"%14.8f W"
$$ 		TEXT	"power PLW1 "
$$ END
$$ NAME		GPNAM[1]
$$ 		TEXT	" "
$$ END
$$ T_NAME		GPZ1
$$ 		TYPE	R32
$$ 		CLASS	ACQU
$$ 		SUBRANGE -100.0 100.0
$$ 		REL	"GPZ1=GPZ[1]"
$$ 		INV_REL	"GPZ[1]=GPZ1"
$$ 		UNIT	"%"
$$ 		FORMAT	"%14.2f %"
$$ 		TEXT	" "
$$ END
$$ T_NAME		P16
$$ 		TYPE	R32
$$ 		CLASS	ACQU
$$ 		SUBRANGE 0.0 1.0e10
$$ 		REL	"P16=P[16]"
$$ 		INV_REL	"P[16]=P16"
$$ 		UNIT	"usec"
$$ 		FORMAT	"%14.2f usec"
$$ 		TEXT	" "
$$ END
##$RELAX= 
##$BRUKER FILE EXP=fq1list
$$ O 400.072200
$$ -3000000
$$ -2984375
$$ -2968750
$$ -2953125
$$ -2937500
$$ -2921875
$$ -2906250
$$ -2890625
$$ -2875000
$$ -2859375
$$ -2843750
$$ -2828125
$$ -2812500
$$ -2796875
$$ -2781250
$$ -2765625
$$ -2750000
$$ -2734375
$$ -2718750
$$ -2703125
$$ -2687500
$$ -2671875
$$ -2656250
$$ -2640625
$$ -2625000
$$ -2609375
$$ -2593750
$$ -2578125
$$ -2562500
$$ -2546875
$$ -2531250
$$ -2515625
$$ -2500000
$$ -2484375
$$ -2468750
$$ -2453125
$$ -2437500
$$ -2421875
$$ -2406250
$$ -2390625
$$ -2375000
$$ -2359375
$$ -2343750
$$ -2328125
$$ -2312500
$$ -2296875
$$ -2281250
$$ -2265625
$$ -2250000
$$ -2234375
$$ -2218750
$$ -2203125
$$ -2187500
$$ -2171875
$$ -2156250
$$ -2140625
$$ -2125000
$$ -2109375
$$ -2093750
$$ -2078125
$$ -2062500
$$ -2046875
$$ -2031250
$$ -2015625
$$ -2000000
$$ -1984375
$$ -1968750
$$ -1953125
$$ -1937500
$$ -1921875
$$ -1906250
$$ -1890625
$$ -1875000
$$ -1859375
$$ -1843750
$$ -1828125
$$ -1812500
$$ -1796875
$$ -1781250
$$ -1765625
$$ -1750000
$$ -1734375
$$ -1718750
$$ -1703125
$$ -1687500
$$ -1671875
$$ -1656250
$$ -1640625
$$ -1625000
$$ -1609375
$$ -1593750
$$ -1578125
$$ -1562500
$$ -1546875
$$ -1531250
$$ -1515625
$$ -1500000
$$ -1484375
$$ -1468750
$$ -1453125
$$ -1437500
$$ -1421875
$$ -1406250
$$ -1390625
$$ -1375000
$$ -1359375
$$ -1343750
$$ -1328125
$$ -1312500
$$ -1296875
$$ -1281250
$$ -1265625
$$ -1250000
$$ -1234375
$$ -1218750
$$ -1203125
$$ -1187500
$$ -1171875
$$ -1156250
$$ -1140625
$$ -1125000
$$ -1109375
$$ -1093750
$$ -1078125
$$ -1062500
$$ -1046875
$$ -1031250
$$ -1015625
$$ -1000000
$$  -992157
$$  -984314
$$  -976471
$$  -968627
$$  -960784
$$  -952941
$$  -945098
$$  -937255
$$  -929412
$$  -921569
$$  -913725
$$  -905882
$$  -898039
$$  -890196
$$  -882353
$$  -874510
$$  -866667
$$  -858824
$$  -850980
$$  -843137
$$  -835294
$$  -827451
$$  -819608
$$  -811765
$$  -803922
$$  -796078
$$  -788235
$$  -780392
$$  -772549
$$  -764706
$$  -756863
$$  -749020
$$  -741176
$$  -733333
$$  -725490
$$  -717647
$$  -709804
$$  -701961
$$  -694118
$$  -686275
$$  -678431
$$  -670588
$$  -662745
$$  -654902
$$  -647059
$$  -639216
$$  -631373
$$  -623529
$$  -615686
$$  -607843
$$  -600000
$$  -592157
$$  -584314
$$  -576471
$$  -568627
$$  -560784
$$  -552941
$$  -545098
$$  -537255
$$  -529412
$$  -521569
$$  -513725
$$  -505882
$$  -498039
$$  -490196
$$  -482353
$$  -474510
$$  -466667
$$  -458824
$$  -450980
$$  -443137
$$  -435294
$$  -427451
$$  -419608
$$  -411765
$$  -403922
$$  -396078
$$  -388235
$$  -380392
$$  -372549
$$  -364706
$$  -356863
$$  -349020
$$  -341176
$$  -333333
$$  -325490
$$  -317647
$$  -309804
$$  -301961
$$  -294118
$$  -286275
$$  -278431
$$  -270588
$$  -262745
$$  -254902
$$  -247059
$$  -239216
$$  -231373
$$  -223529
$$  -215686
$$  -207843
$$  -200000
$$  -192157
$$  -184314
$$  -176471
$$  -168627
$$  -160784
$$  -152941
$$  -145098
$$  -137255
$$  -129412
$$  -121569
$$  -113725
$$  -105882
$$   -98039
$$   -90196
$$   -82353
$$   -74510
$$   -66667
$$   -58824
$$   -50980
$$   -43137
$$   -35294
$$   -27451
$$   -19608
$$   -11765
$$    -3922
$$     3922
$$    11765
$$    19608
$$    27451
$$    35294
$$    43137
$$    50980
$$    58824
$$    66667
$$    74510
$$    82353
$$    90196
$$    98039
$$   105882
$$   113725
$$   121569
$$   129412
$$   137255
$$   145098
$$   152941
$$   160784
$$   168627
$$   176471
$$   184314
$$   192157
$$   200000
$$   207843
$$   215686
$$   223529
$$   231373
$$   239216
$$   247059
$$   254902
$$   262745
$$   270588
$$   278431
$$   286275
$$   294118
$$   301961
$$   309804
$$   317647
$$   325490
$$   333333
$$   341176
$$   349020
$$   356863
$$   364706
$$   372549
$$   380392
$$   388235
$$   396078
$$   403922
$$   411765
$$   419608
$$   427451
$$   435294
$$   443137
$$   450980
$$   458824
$$   466667
$$   474510
$$   482353
$$   490196
$$   498039
$$   505882
$$   513725
$$   521569
$$   529412
$$   537255
$$   545098
$$   552941
$$   560784
$$   568627
$$   576471
$$   584314
$$   592157
$$   600000
$$   607843
$$   615686
$$   623529
$$   631373
$$   639216
$$   647059
$$   654902
$$   662745
$$   670588
$$   678431
$$   686275
$$   694118
$$   701961
$$   709804
$$   717647
$$   725490
$$   733333
$$   741176
$$   749020
$$   756863
$$   764706
$$   772549
$$   780392
$$   788235
$$   796078
$$   803922
$$   811765
$$   819608
$$   827451
$$   835294
$$   843137
$$   850980
$$   858824
$$   866667
$$   874510
$$   882353
$$   890196
$$   898039
$$   905882
$$   913725
$$   921569
$$   929412
$$   937255
$$   945098
$$   952941
$$   960784
$$   968627
$$   976471
$$   984314
$$   992157
$$  1000000
$$  1015625
$$  1031250
$$  1046875
$$  1062500
$$  1078125
$$  1093750
$$  1109375
$$  1125000
$$  1140625
$$  1156250
$$  1171875
$$  1187500
$$  1203125
$$  1218750
$$  1234375
$$  1250000
$$  1265625
$$  1281250
$$  1296875
$$  1312500
$$  1328125
$$  1343750
$$  1359375
$$  1375000
$$  1390625
$$  1406250
$$  1421875
$$  1437500
$$  1453125
$$  1468750
$$  1484375
$$  1500000
$$  1515625
$$  1531250
$$  1546875
$$  1562500
$$  1578125
$$  1593750
$$  1609375
$$  1625000
$$  1640625
$$  1656250
$$  1671875
$$  1687500
$$  1703125
$$  1718750
$$  1734375
$$  1750000
$$  1765625
$$  1781250
$$  1796875
$$  1812500
$$  1828125
$$  1843750
$$  1859375
$$  1875000
$$  1890625
$$  1906250
$$  1921875
$$  1937500
$$  1953125
$$  1968750
$$  1984375
$$  2000000
$$  2015625
$$  2031250
$$  2046875
$$  2062500
$$  2078125
$$  2093750
$$  2109375
$$  2125000
$$  2140625
$$  2156250
$$  2171875
$$  2187500
$$  2203125
$$  2218750
$$  2234375
$$  2250000
$$  2265625
$$  2281250
$$  2296875
$$  2312500
$$  2328125
$$  2343750
$$  2359375
$$  2375000
$$  2390625
$$  2406250
$$  2421875
$$  2437500
$$  2453125
$$  2468750
$$  2484375
$$  2500000
$$  2515625
$$  2531250
$$  2546875
$$  2562500
$$  2578125
$$  2593750
$$  2609375
$$  2625000
$$  2640625
$$  2656250
$$  2671875
$$  2687500
$$  2703125
$$  2718750
$$  2734375
$$  2750000
$$  2765625
$$  2781250
$$  2796875
$$  2812500
$$  2828125
$$  2843750
$$  2859375
$$  2875000
$$  2890625
$$  2906250
$$  2921875
$$  2937500
$$  2953125
$$  2968750
$$  2984375
$$  3000000
##$RELAX= 
##$BRUKER FILE EXP=gpnam1
$$ ##TITLE= 
$$ ##JCAMP-DX= 5.00 Bruker JCAMP library
$$ ##DATA TYPE= Shape Data
$$ ##ORIGIN= Bruker BioSpin GmbH
$$ ##OWNER= <demo>
$$ ##DATE= 2008/09/08
$$ ##TIME= 13:20:52
$$ ##$SHAPE_PARAMETERS= Type: Sinus ; Number of Cycles 1.0 ; Phase Angle [deg] 0.0
$$ ##MINX= 0.000000E00
$$ ##MAXX= 1.000000E02
$$ ##MINY= 0.000000E00
$$ ##MAXY= 1.000000E00
$$ ##$SHAPE_EXMODE= Gradient
$$ ##$SHAPE_TOTROT= 9.000000E01
$$ ##$SHAPE_TYPE= None
$$ ##$SHAPE_USER_DEF= 
$$ ##$SHAPE_REPHFAC= 
$$ ##$SHAPE_BWFAC= 0.000000E00
$$ ##$SHAPE_BWFAC50= 
$$ ##$SHAPE_INTEGFAC= 6.3656674E-01
$$ ##$SHAPE_MODE= 0
$$ ##NPOINTS= 100
$$ ##XYDATA= (X++(Y..Y))
$$ 3.141076E-02
$$ 6.279052E-02
$$ 9.410831E-02
$$ 1.253332E-01
$$ 1.564345E-01
$$ 1.873813E-01
$$ 2.181432E-01
$$ 2.486899E-01
$$ 2.789911E-01
$$ 3.090170E-01
$$ 3.387379E-01
$$ 3.681246E-01
$$ 3.971479E-01
$$ 4.257793E-01
$$ 4.539905E-01
$$ 4.817537E-01
$$ 5.090414E-01
$$ 5.358268E-01
$$ 5.620834E-01
$$ 5.877853E-01
$$ 6.129071E-01
$$ 6.374240E-01
$$ 6.613119E-01
$$ 6.845471E-01
$$ 7.071068E-01
$$ 7.289686E-01
$$ 7.501111E-01
$$ 7.705132E-01
$$ 7.901550E-01
$$ 8.090170E-01
$$ 8.270806E-01
$$ 8.443279E-01
$$ 8.607420E-01
$$ 8.763067E-01
$$ 8.910065E-01
$$ 9.048271E-01
$$ 9.177546E-01
$$ 9.297765E-01
$$ 9.408808E-01
$$ 9.510565E-01
$$ 9.602937E-01
$$ 9.685832E-01
$$ 9.759168E-01
$$ 9.822873E-01
$$ 9.876883E-01
$$ 9.921147E-01
$$ 9.955620E-01
$$ 9.980267E-01
$$ 9.995066E-01
$$ 1.000000E00
$$ 9.995066E-01
$$ 9.980267E-01
$$ 9.955620E-01
$$ 9.921147E-01
$$ 9.876883E-01
$$ 9.822873E-01
$$ 9.759168E-01
$$ 9.685832E-01
$$ 9.602937E-01
$$ 9.510565E-01
$$ 9.408808E-01
$$ 9.297765E-01
$$ 9.177546E-01
$$ 9.048271E-01
$$ 8.910065E-01
$$ 8.763067E-01
$$ 8.607420E-01
$$ 8.443279E-01
$$ 8.270806E-01
$$ 8.090170E-01
$$ 7.901550E-01
$$ 7.705132E-01
$$ 7.501111E-01
$$ 7.289686E-01
$$ 7.071068E-01
$$ 6.845471E-01
$$ 6.613119E-01
$$ 6.374240E-01
$$ 6.129071E-01
$$ 5.877853E-01
$$ 5.620834E-01
$$ 5.358268E-01
$$ 5.090414E-01
$$ 4.817537E-01
$$ 4.539905E-01
$$ 4.257793E-01
$$ 3.971479E-01
$$ 3.681246E-01
$$ 3.387379E-01
$$ 3.090170E-01
$$ 2.789911E-01
$$ 2.486899E-01
$$ 2.181432E-01
$$ 1.873813E-01
$$ 1.564345E-01
$$ 1.253332E-01
$$ 9.410831E-02
$$ 6.279052E-02
$$ 3.141076E-02
$$ 0.000000E00
$$ ##END=
##$RELAX= 
##$BRUKER FILE EXP=scon2
$$ ##TITLE= Parameter file, TopSpin 3.6.2
$$ ##JCAMPDX= 5.0
$$ ##DATATYPE= Parameter Values
$$ ##NPOINTS= 1	$$ modification sequence number
$$ ##ORIGIN= Bruker BioSpin GmbH
$$ ##OWNER= nmrsu
$$ $$ 2024-11-29 17:37:28.740 +0000  nmrsu@cyan.ch.man.ac.uk
$$ $$ /mnt/nmrdata/Service/data/n82265as/nmr/20241129-1030-B400_B.11-10/13/scon2
$$ $$ process /opt/topspin3.6.2/prog/mod/go4
$$ ##$BLKTR= (0..19)
$$ 3 3 3 3 3 3 3 3 3 3 3 3 3 3 3 3 3 3 3 3
$$ ##$DE1= 4.5
$$ ##$DEADC= 0.5
$$ ##$DEPA= 4.5
$$ ##$DERX= 1.5
$$ ##$FILCOR= 1
$$ ##$GRADCHAN= 0
$$ ##$GRADPRE= (0..1)
$$ 10 10
$$ ##$HD_BLKTR= (0..19)
$$ 1 1 1 1 1 1 1 1 1 1 1 1 1 1 1 1 1 1 1 1
$$ ##$HD_DE1= 5
$$ ##$HD_DEADC= 0
$$ ##$HD_DEPA= 2.5
$$ ##$HD_DERX= 0
$$ ##END=
##$RELAX= 
##$BRUKER FILE EXP=acqum
$$ ##TITLE= Parameter file, TopSpin 3.6.2
$$ ##JCAMPDX= 5.0
$$ ##DATATYPE= Parameter Values
$$ ##NPOINTS= 1	$$ modification sequence number
$$ ##ORIGIN= Bruker BioSpin GmbH
$$ ##OWNER= nmrsu
$$ $$ 2024-11-29 10:31:51.032 +0000  nmrsu@cyan.ch.man.ac.uk
$$ $$ /opt/topspin3.6.2/prog/curdir/changer/inmrchanger/Oct21-2024-1040-iconsu/10/10.986/data/nmr/20241129-1030-B400_B.11-10/13/acqum
$$ $$ process /opt/topspin3.6.2/prog/mod/xwish3
$$ ##$COMMENT= <>
$$ ##$ECF= 1
$$ ##$ECHOLST= (0..15)
$$ 1 1 1 1 1 1 1 1 1 1 1 1 1 1 1 1
$$ ##$ECOLLST= (0..15)
$$ 1 1 1 1 1 1 1 1 1 1 1 1 1 1 1 1
$$ ##$FLIPA= 0
$$ ##$FOV1= 0
$$ ##$FOV2= 0
$$ ##$FOV3= 0
$$ ##$FRARE= 1
$$ ##$HEADER= <>
$$ ##$INSTIT= <>
$$ ##$METHOD= <>
$$ ##$NECHOES= 1
$$ ##$NPROJEC= 32
$$ ##$NSLICES= 32
$$ ##$PATPOS= 0
$$ ##$RUNEXAM= -1
$$ ##$SDIST= 1
$$ ##$SOANGLE= 0
$$ ##$SORIENT= 0
$$ ##$SOT= <>
$$ ##$SPOS= 0
$$ ##$SPOSDIR= <>
$$ ##$STHICK= 3
$$ ##$T2DIST= 30
$$ ##$TINV= 50
$$ ##$TREC= 2700
$$ ##$TREP= 3000
$$ ##$TSCAN= 50000
$$ ##END=
##$RELAX= 
##$BRUKER FILE EXP=nuslist
$$ 0
$$ 85
$$ 294
$$ 457
$$ 252
$$ 36
$$ 144
$$ 82
$$ 69
$$ 25
$$ 38
$$ 411
$$ 229
$$ 50
$$ 401
$$ 78
$$ 507
$$ 157
$$ 113
$$ 115
$$ 340
$$ 104
$$ 75
$$ 55
$$ 346
$$ 169
$$ 489
$$ 154
$$ 463
$$ 473
$$ 18
$$ 403
$$ 410
$$ 74
$$ 155
$$ 127
$$ 387
$$ 447
$$ 347
$$ 11
$$ 45
$$ 68
$$ 160
$$ 243
$$ 79
$$ 459
$$ 504
$$ 416
$$ 364
$$ 322
$$ 222
$$ 404
$$ 415
$$ 136
$$ 129
$$ 497
$$ 187
$$ 57
$$ 300
$$ 253
$$ 188
$$ 269
$$ 198
$$ 483
$$ 99
$$ 336
$$ 103
$$ 111
$$ 162
$$ 289
$$ 30
$$ 309
$$ 467
$$ 430
$$ 16
$$ 402
$$ 350
$$ 317
$$ 191
$$ 173
$$ 480
$$ 511
$$ 156
$$ 306
$$ 486
$$ 413
$$ 205
$$ 189
$$ 310
$$ 128
$$ 409
$$ 240
$$ 464
$$ 384
$$ 429
$$ 271
$$ 134
$$ 158
$$ 66
$$ 376
$$ 236
$$ 323
$$ 328
$$ 258
$$ 14
$$ 137
$$ 178
$$ 394
$$ 414
$$ 510
$$ 165
$$ 369
$$ 206
$$ 224
$$ 106
$$ 126
$$ 355
$$ 382
$$ 499
$$ 335
$$ 305
$$ 371
$$ 27
$$ 2
$$ 255
$$ 161
$$ 207
$$ 112
$$ 299
$$ 121
$$ 434
$$ 474
$$ 20
$$ 396
$$ 145
$$ 444
$$ 96
$$ 208
$$ 185
$$ 440
$$ 426
$$ 273
$$ 204
$$ 148
$$ 95
$$ 398
$$ 339
$$ 277
$$ 388
$$ 360
$$ 63
$$ 180
$$ 28
$$ 495
$$ 223
$$ 110
$$ 441
$$ 13
$$ 249
$$ 424
$$ 316
$$ 62
$$ 92
$$ 93
$$ 146
$$ 298
$$ 177
$$ 60
$$ 226
##$RELAX= 
##$BRUKER FILE EXP=orig
$$ Ref Molecule 5
$$ Group Service
##$RELAX= 
##$BRUKER FILE EXP=prosol_History
##$RELAX= 
##$BRUKER FILE EXP=pulseprogram
$$ # 1 "/opt/topspin3.6.2/exp/stan/nmr/lists/pp/cosygpqf"
$$ ;cosygpqf
$$ ;avance-version (12/01/11)
$$ ;2D homonuclear shift correlation
$$ ;using gradient pulses for selection
$$ ;
$$ ;$CLASS=HighRes
$$ ;$DIM=2D
$$ ;$TYPE=
$$ ;$SUBTYPE=
$$ ;$COMMENT=
$$ 
$$ 
$$ # 1 "/opt/topspin3.6.2/exp/stan/nmr/lists/pp/Avance.incl" 1
$$ ;Avance3aqs.incl
$$ ;   for AV III with AQS IPSO
$$ ;
$$ ;avance-version (15/06/05)
$$ ;
$$ ;$CLASS=HighRes Incl
$$ ;$COMMENT=
$$ # 170 "/opt/topspin3.6.2/exp/stan/nmr/lists/pp/Avance.incl"
$$ ;$Id: Avance3aqs.incl,v 1.1.8.3 2015/03/05 16:46:54 ber Exp $
$$ # 13 "/opt/topspin3.6.2/exp/stan/nmr/lists/pp/cosygpqf" 2
$$ 
$$ # 1 "/opt/topspin3.6.2/exp/stan/nmr/lists/pp/Grad.incl" 1
$$ ;Grad2.incl  -  include file for Gradient Spectroscopy
$$ ;   for TCU3
$$ ;
$$ ;avance-version (07/01/17)
$$ ;
$$ ;$CLASS=HighRes Incl
$$ ;$COMMENT=
$$ 
$$ # 27 "/opt/topspin3.6.2/exp/stan/nmr/lists/pp/Grad.incl"
$$ define list<gradient> EA=<EA>
$$ 
$$ 
$$ # 31 "/opt/topspin3.6.2/exp/stan/nmr/lists/pp/Grad.incl"
$$ ;$Id: Grad2.incl,v 1.14 2012/01/31 17:49:21 ber Exp $
$$ # 14 "/opt/topspin3.6.2/exp/stan/nmr/lists/pp/cosygpqf" 2
$$ 
$$ 
$$ # 17 "/opt/topspin3.6.2/exp/stan/nmr/lists/pp/cosygpqf"
$$ "d13=4u"
$$ 
$$ 
$$ "in0=inf1"
$$ # 22 "/opt/topspin3.6.2/exp/stan/nmr/lists/pp/cosygpqf"
$$ "d0=3u"
$$ 
$$ 
$$ # 1 "mc_line 25 file /opt/topspin3.6.2/exp/stan/nmr/lists/pp/cosygpqf exp. def. part of mc cmd. before ze"
$$ ; dimension 2D; AQ_mode  (F1) QF
$$ define delay MCWRK
$$ define delay MCREST
$$ define delay d0orig
$$ "d0orig=d0"
$$ define list<loopcounter> SPARSELIST = <$NUSLIST>
$$ define loopcounter t1loop
$$ "t1loop=0"
$$ define loopcounter ph1loop
$$ "ph1loop=0"
$$ define loopcounter STNCNT
$$ "STNCNT=SPARSELIST.len/1"
$$ "MCREST = d1 - d1"
$$ "MCWRK = 0.250000*d1"
$$ 
$$     dccorr
$$ # 25 "/opt/topspin3.6.2/exp/stan/nmr/lists/pp/cosygpqf"
$$ 1 ze
$$ # 1 "mc_line 25 file /opt/topspin3.6.2/exp/stan/nmr/lists/pp/cosygpqf exp. def. of mc cmd. after ze"
$$ LBLAV, MCWRK
$$   MCWRK
$$   "t1loop = SPARSELIST"
$$   MCWRK  SPARSELIST.inc
$$       "d0=d0orig + t1loop * in0 "
$$ # 26 "/opt/topspin3.6.2/exp/stan/nmr/lists/pp/cosygpqf"
$$ # 1 "mc_line 26 file /opt/topspin3.6.2/exp/stan/nmr/lists/pp/cosygpqf exp. start label for mc cmd."
$$ 2 MCWRK  * 3
$$ LBLSTN, MCWRK
$$   MCREST
$$ # 27 "/opt/topspin3.6.2/exp/stan/nmr/lists/pp/cosygpqf"
$$ 3 p1 ph1
$$   d0
$$   50u setnmr3|0 setnmr0|34|32|33 ctrlgrad 0
$$   p16:gp1
$$   d16
$$   p0 ph2
$$   d13
$$   p16:gp1
$$   d16
$$   4u setnmr3^0 setnmr0^34^32^33 ctrlgrad 7
$$   go=2 ph31
$$ # 1 "mc_line 38 file /opt/topspin3.6.2/exp/stan/nmr/lists/pp/cosygpqf exp. mc cmd. in line"
$$   MCWRK  wr #0 if #0 zd 
$$ 
$$   MCWRK
$$   "t1loop = SPARSELIST"
$$   MCWRK  SPARSELIST.inc
$$       "d0=d0orig + t1loop * in0 "
$$   lo to LBLSTN times STNCNT
$$   MCWRK rf #0 SPARSELIST.res
$$   lo to LBLAV times tdav
$$ # 39 "/opt/topspin3.6.2/exp/stan/nmr/lists/pp/cosygpqf"
$$ exit
$$ # 42 "/opt/topspin3.6.2/exp/stan/nmr/lists/pp/cosygpqf"
$$ ph1=0 2
$$ ph2=0 0 2 2
$$ ph31=0 2
$$ 
$$ 
$$ ;pl1 : f1 channel - power level for pulse (default)
$$ ;p0 : f1 channel -  20 to 90 degree high power pulse
$$ ;p1 : f1 channel -  90 degree high power pulse
$$ ;p16: homospoil/gradient pulse
$$ ;d0 : incremented delay (2D)                         [3 usec]
$$ ;d1 : relaxation delay; 1-5 * T1
$$ ;d13: short delay                                    [4 usec]
$$ ;d16: delay for homospoil/gradient recovery
$$ ;inf1: 1/SW = 2 * DW
$$ ;in0: 1/(1 * SW) = 2 * DW
$$ ;nd0: 1
$$ ;ns: 1 * n
$$ ;ds: 16
$$ ;td1: number of experiments
$$ ;FnMODE: QF
$$ # 63 "/opt/topspin3.6.2/exp/stan/nmr/lists/pp/cosygpqf"
$$ ;use gradient ratio:	gp 1
$$ ;			  10
$$ 
$$ ;for z-only gradients:
$$ ;gpz1: 10%
$$ 
$$ ;use gradient files:   
$$ ;gpnam1: SMSQ10.100
$$ # 74 "/opt/topspin3.6.2/exp/stan/nmr/lists/pp/cosygpqf"
$$ ;$Id: cosygpqf,v 1.7 2012/01/31 17:49:22 ber Exp $
##$RELAX= 
##$BRUKER FILE EXP=shimvalues
$$ # Fri Nov 29 17:37:57 2024
$$ #$$PROBEIDENTIFIER=Z108618_0671
$$ #$$PROBENAME=PA BBO 400S1 BBF-H-D-05 Z
$$ #$$SHIMID=313232
$$ #
$$ # Active Shim Gradients
$$ #
$$ Z           		-12840          
$$ Z2          		-5617           
$$ Z3          		-3283           
$$ Z4          		-16436          
$$ Z5          		-1585           
$$ Z6          		13162           
$$ X           		88              
$$ XZ          		-2673           
$$ XZ2         		-711            
$$ XZ3         		-2011           
$$ Y           		-3804           
$$ YZ          		-12477          
$$ YZ2         		-16247          
$$ YZ3         		1505            
$$ XY          		2369            
$$ XYZ         		-1209           
$$ (X2-Y2)     		-1762           
$$ (X2-Y2)Z    		7187            
$$ X3          		-12247          
$$ Y3          		4156            
$$ #
$$ # Lock Parameter
$$ #
$$ FIELD		-2718.095
$$ LOCKPHASE		301.477 
$$ LOCKPOWER		-26.000 
$$ LOCKGAIN		128.145 
$$ LOCKDC		-40.000 
$$ LOCKSHIFT		7.160   
$$ LOOPGAIN		-0.000  
$$ LOOPTIME		0.200   
$$ LOOPFILTER		300.000 
$$ #
$$ IEEE64_VERSION_CODE 1
$$ #
$$ # Shim currents 
$$ #
$$ SHIM_SETTING [1 ]  -6227.47404974  
$$ SHIM_SETTING [2 ]  -2780.50776044  
$$ SHIM_SETTING [3 ]  -1727.03596621  
$$ SHIM_SETTING [4 ]  -8645.46791308  
$$ SHIM_SETTING [5 ]  -833.91188702   
$$ SHIM_SETTING [6 ]  46.19494553     
$$ SHIM_SETTING [7 ]  -1406.25259518  
$$ SHIM_SETTING [8 ]  -373.84883454   
$$ SHIM_SETTING [9 ]  -926.92168460   
$$ SHIM_SETTING [10]  1245.86816497   
$$ SHIM_SETTING [11]  -2000.68505744  
$$ SHIM_SETTING [12]  -6563.15251643  
$$ SHIM_SETTING [13]  -8546.06100614  
$$ SHIM_SETTING [14]  791.45359733    
$$ SHIM_SETTING [15]  6923.08500000   
$$ SHIM_SETTING [16]  3780.34532129   
$$ SHIM_SETTING [17]  -1057.96238873  
$$ SHIM_SETTING [18]  -635.82113354   
$$ SHIM_SETTING [19]  -6442.06368441  
$$ SHIM_SETTING [20]  2186.03611223   
##$RELAX= 
##$BRUKER FILE EXP=uxnmr.par
$$ ##TITLE= Parameter file, TopSpin 3.6.2
$$ ##JCAMPDX= 5.0
$$ ##DATATYPE= Parameter Values
$$ ##NPOINTS= 174	$$ modification sequence number
$$ ##ORIGIN= Bruker BioSpin GmbH
$$ ##OWNER= nmrsu
$$ $$ 2024-10-17 14:57:28.601 +0100  nmrsu@cyan.ch.man.ac.uk
$$ $$ /opt/topspin3.6.2/conf/instr/spect/uxnmr.par
$$ $$ process /opt/topspin3.6.2/prog/mod/cfserverav3
$$ ##$ACB= 0
$$ ##$ACBTAT= (0..23)
$$ 0 72 88 50 0 0 0 0 0 0 0 0 0 0 0 0 0 0 0 0 0 0 0 0
$$ ##$ACBTBA= (0..23)
$$ 0 0 0 0 0 0 0 0 0 0 0 0 0 0 0 0 0 0 0 0 0 0 0 0
$$ ##$ACBTBLK= (0..23)
$$ 0 34 33 39 0 0 0 0 0 0 0 0 0 0 0 0 0 0 0 0 0 0 0 0
$$ ##$ACBTCTL= (0..23)
$$ 0 6 6 6 0 0 0 0 0 0 0 0 0 0 0 0 0 0 0 0 0 0 0 0
$$ ##$ACBTDI= (0..23)
$$ 0 -1779670129 -1779670129 -1779670251 0 0 0 0 0 0 0 0 0 0 0 0 0 0 0 0 0
$$ 0 0 0
$$ ##$ACBTDM= (0..23)
$$ 0 25 10 10 0 0 0 0 0 0 0 0 0 0 0 0 0 0 0 0 0 0 0 0
$$ ##$ACBTFHI= (0..23)
$$ 0 600 365 62 0 0 0 0 0 0 0 0 0 0 0 0 0 0 0 0 0 0 0 0
$$ ##$ACBTFL= (0..23)
$$ 0 248 248 8 0 0 0 0 0 0 0 0 0 0 0 0 0 0 0 0 0 0 0 0
$$ ##$ACBTFLO= (0..23)
$$ 0 180 6 60 0 0 0 0 0 0 0 0 0 0 0 0 0 0 0 0 0 0 0 0
$$ ##$ACBTINP= (0..23)
$$ 0 2 1 7 0 0 0 0 0 0 0 0 0 0 0 0 0 0 0 0 0 0 0 0
$$ ##$ACBTOUT= (0..23)
$$ 0 1 2 1 0 0 0 0 0 0 0 0 0 0 0 0 0 0 0 0 0 0 0 0
$$ ##$ACBTPO= (0..23)
$$ 0 100000 300000 5000 0 0 0 0 0 0 0 0 0 0 0 0 0 0 0 0 0 0 0 0
$$ ##$ACBTPW= (0..23)
$$ 0 100 100 1000 0 0 0 0 0 0 0 0 0 0 0 0 0 0 0 0 0 0 0 0
$$ ##$ACBTSB= (0..23)
$$ 0 103 99 0 0 0 0 0 0 0 0 0 0 0 0 0 0 0 0 0 0 0 0 0
$$ ##$ACBTSDT= (0..23)
$$ 0 2 2 2 0 0 0 0 0 0 0 0 0 0 0 0 0 0 0 0 0 0 0 0
$$ ##$ACBTY= <no>
$$ ##$AMPDFLT= no
$$ ##$AQSBDCH= (0..95)
$$ 0 0 0 0 0 0 0 0 255 255 255 255 255 255 255 255 255 255 255 255 255 255
$$ 255 255 255 255 255 255 255 255 255 255 255 255 255 255 255 255 255 255
$$ 255 255 255 255 255 255 255 255 255 255 255 255 255 255 255 255 255 255
$$ 255 255 255 255 255 255 255 255 255 255 255 255 255 255 255 255 255 255
$$ 255 255 255 255 255 255 255 255 255 255 255 255 255 255 255 255 255 255
$$ 255 255
$$ ##$AQSBDHW= (0..95)
$$ 5 1 0 0 0 0 0 0 255 255 255 255 255 255 255 255 255 255 255 255 255 255
$$ 255 255 255 255 255 255 255 255 255 255 255 255 255 255 255 255 255 255
$$ 255 255 255 255 255 255 255 255 255 255 255 255 255 255 255 255 255 255
$$ 255 255 255 255 255 255 255 255 255 255 255 255 255 255 255 255 255 255
$$ 255 255 255 255 255 255 255 255 255 255 255 255 255 255 255 255 255 255
$$ 255 255
$$ ##$AQSBDID= (0..95)
$$ 82 88 83 83 86 86 66 66 255 255 255 255 255 255 255 255 255 255 255 255
$$ 255 255 255 255 255 255 255 255 255 255 255 255 255 255 255 255 255 255
$$ 255 255 255 255 255 255 255 255 255 255 255 255 255 255 255 255 255 255
$$ 255 255 255 255 255 255 255 255 255 255 255 255 255 255 255 255 255 255
$$ 255 255 255 255 255 255 255 255 255 255 255 255 255 255 255 255 255 255
$$ 255 255 255 255
$$ ##$AQSBDNO= (0..95)
$$ 1 1 1 2 1 2 1 1 255 255 255 255 255 255 255 255 255 255 255 255 255 255
$$ 255 255 255 255 255 255 255 255 255 255 255 255 255 255 255 255 255 255
$$ 255 255 255 255 255 255 255 255 255 255 255 255 255 255 255 255 255 255
$$ 255 255 255 255 255 255 255 255 255 255 255 255 255 255 255 255 255 255
$$ 255 255 255 255 255 255 255 255 255 255 255 255 255 255 255 255 255 255
$$ 255 255
$$ ##$AQSBDSL= (0..95)
$$ 2 3 4 4 13 14 255 1 255 255 255 255 255 255 255 255 255 255 255 255 255
$$ 255 255 255 255 255 255 255 255 255 255 255 255 255 255 255 255 255 255
$$ 255 255 255 255 255 255 255 255 255 255 255 255 255 255 255 255 255 255
$$ 255 255 255 255 255 255 255 255 255 255 255 255 255 255 255 255 255 255
$$ 255 255 255 255 255 255 255 255 255 255 255 255 255 255 255 255 255 255
$$ 255 255 255
$$ ##$AQSBDTY= (0..95)
$$ 67 214 50 50 147 145 216 7 255 255 255 255 255 255 255 255 255 255 255
$$ 255 255 255 255 255 255 255 255 255 255 255 255 255 255 255 255 255 255
$$ 255 255 255 255 255 255 255 255 255 255 255 255 255 255 255 255 255 255
$$ 255 255 255 255 255 255 255 255 255 255 255 255 255 255 255 255 255 255
$$ 255 255 255 255 255 255 255 255 255 255 255 255 255 255 255 255 255 255
$$ 255 255 255 255 255
$$ ##$AQSBUAD= (0..95)
$$ 16 52 36 37 160 161 32 32 255 255 255 255 255 255 255 255 255 255 255 255
$$ 255 255 255 255 255 255 255 255 255 255 255 255 255 255 255 255 255 255
$$ 255 255 255 255 255 255 255 255 255 255 255 255 255 255 255 255 255 255
$$ 255 255 255 255 255 255 255 255 255 255 255 255 255 255 255 255 255 255
$$ 255 255 255 255 255 255 255 255 255 255 255 255 255 255 255 255 255 255
$$ 255 255 255 255
$$ ##$AQSECL= (0..95)
$$ 0 3 2 2 0 1 2 255 255 255 255 255 255 255 255 255 255 255 255 255 255 255
$$ 255 255 255 255 255 255 255 255 255 255 255 255 255 255 255 255 255 255
$$ 255 255 255 255 255 255 255 255 255 255 255 255 255 255 255 255 255 255
$$ 255 255 255 255 255 255 255 255 255 255 255 255 255 255 255 255 255 255
$$ 255 255 255 255 255 255 255 255 255 255 255 255 255 255 255 255 255 255
$$ 255 255
$$ ##$AQSECLS= (0..95)
$$ 2 0 2 2 1 2 0 255 255 255 255 255 255 255 255 255 255 255 255 255 255 255
$$ 255 255 255 255 255 255 255 255 255 255 255 255 255 255 255 255 255 255
$$ 255 255 255 255 255 255 255 255 255 255 255 255 255 255 255 255 255 255
$$ 255 255 255 255 255 255 255 255 255 255 255 255 255 255 255 255 255 255
$$ 255 255 255 255 255 255 255 255 255 255 255 255 255 255 255 255 255 255
$$ 255 255
$$ ##$AQSETH1= <no>
$$ ##$AQSETH2= <no>
$$ ##$AQSSPLT= no
$$ ##$ATT19F= (0..1)
$$ 0 0
$$ ##$ATT1H= (0..1)
$$ 0 0
$$ ##$ATT3H= (0..1)
$$ 0 0
$$ ##$ATTX= (0..1)
$$ 0 0
$$ ##$ATTY= (0..1)
$$ 0 0
$$ ##$ATTZ= (0..1)
$$ 0 0
$$ ##$BACSAIR= yes
$$ ##$BACSCAP= 60
$$ ##$BACSDEL= 10
$$ ##$BACSFCM= no
$$ ##$BACSOPT= <>
$$ ##$BACSTY= <tty04>
$$ ##$BARPTY= <no>
$$ ##$BFREQ= 400.07
$$ ##$BGAETH= (0..9)
$$ <no> <no> <no> <no> <no> <no> <no> <no> <no> <no>
$$ ##$BIRDS= yes
$$ ##$BMPC= 0
$$ ##$BMPCTY= <no>
$$ ##$BPSUTY= <no>
$$ ##$BSMS= 2
$$ ##$BSMS19FLock= no
$$ ##$BSMSETH= <149.236.99.21>
$$ ##$BSMSTY= <no>
$$ ##$BgaChFac2= (0..7)
$$ 0 0 0 0 0 0 0 0
$$ ##$BgaChMap= (0..7)
$$ 0 0 0 0 0 0 0 0
$$ ##$BgaChMaxv= (0..7)
$$ 0 0 0 0 0 0 0 0
$$ ##$BgaChRouting= (0..63)
$$ 0 0 0 0 0 0 0 0 0 0 0 0 0 0 0 0 0 0 0 0 0 0 0 0 0 0 0 0 0 0 0 0 0 0 0 0
$$ 0 0 0 0 0 0 0 0 0 0 0 0 0 0 0 0 0 0 0 0 0 0 0 0 0 0 0 0
$$ ##$BgaChShimMap= (0..7)
$$ 0 0 0 0 0 0 0 0
$$ ##$BgaChShimMaxv= (0..7)
$$ 0 0 0 0 0 0 0 0
$$ ##$Bla01Eth= <149.236.99.253>
$$ ##$Bla01Nam= <BLAXH300/100 E 200-600MHZ INR>
$$ ##$Bla01PN= <W1345083>
$$ ##$Bla01SN= <0667>
$$ ##$Bla02Eth= <149.236.99.20>
$$ ##$Bla02Nam= <BSMS/2 LOCK TRANSCEIVER 400>
$$ ##$Bla02PN= <Z109888>
$$ ##$Bla02SN= <01052>
$$ ##$Bla03Eth= <no>
$$ ##$Bla03Nam= <>
$$ ##$Bla03PN= <>
$$ ##$Bla03SN= <>
$$ ##$Bla04Eth= <no>
$$ ##$Bla04Nam= <>
$$ ##$Bla04PN= <>
$$ ##$Bla04SN= <>
$$ ##$Bla05Eth= <no>
$$ ##$Bla05Nam= <>
$$ ##$Bla05PN= <>
$$ ##$Bla05SN= <>
$$ ##$Bla06Eth= <no>
$$ ##$Bla06Nam= <>
$$ ##$Bla06PN= <>
$$ ##$Bla06SN= <>
$$ ##$Bla07Eth= <no>
$$ ##$Bla07Nam= <>
$$ ##$Bla07PN= <>
$$ ##$Bla07SN= <>
$$ ##$Bla08Eth= <no>
$$ ##$Bla08Nam= <>
$$ ##$Bla08PN= <>
$$ ##$Bla08SN= <>
$$ ##$BlaEth= (0..9)
$$ <149.236.99.143> <149.236.99.21> <no> <no> <no> <no> <no> <no> <> <>
$$ ##$BlaNam= (0..9)
$$ <BLAXH300/100 E 200-600MHZ INR> <BSMS/2 LOCK TRANSCEIVER 400> <> <> <>
$$ <> <> <> <> <>
$$ ##$BlaPN= (0..9)
$$ <W1345083> <Z109888> <> <> <> <> <> <> <> <>
$$ ##$BlaSN= (0..9)
$$ <0667> <01052> <> <> <> <> <> <> <> <>
$$ ##$BsmsAuxEth= <no>
$$ ##$CFASMOD= (0..7)
$$ 1 1 1 1 1 1 1 1
$$ ##$CFASMUL= (0..7)
$$ 1 1 1 1 1 1 1 1
$$ ##$CNFTXDR= (0..7)
$$ 6 6 0 0 0 0 0 0
$$ ##$COMDIG2= 0
$$ ##$CPDBTY= <no>
$$ ##$CRCOTY= <no>
$$ ##$CSW1= (0..31)
$$ 2 2 0 7 0 0 0 0 0 0 0 0 0 0 0 0 0 0 0 0 0 0 0 0 0 0 0 0 0 0 0 0
$$ ##$CSW2= (0..31)
$$ 1 1 0 0 0 0 0 0 0 0 0 0 0 0 0 0 0 0 0 0 0 0 0 0 0 0 0 0 0 0 0 0
$$ ##$CSWNUM= (0..7)
$$ 3 1 0 0 0 0 0 0
$$ ##$ConsolePnSn= <>
$$ ##$CryoCoolUnitEth= <no>
$$ ##$CryoProAccPnSn= <>
$$ ##$Ctb1Eth= <no>
$$ ##$CubeEth= (0..7)
$$ <no> <no> <no> <no> <no> <no> <no> <no>
$$ ##$CustRegisterNo= <>
$$ ##$DATSTAT= no
$$ ##$DIGI140= (0..7)
$$ 0 0 0 0 0 0 0 0
$$ ##$DIGIB12= (0..7)
$$ 0 0 0 0 0 0 0 0
$$ ##$DIGIB16= (0..7)
$$ 0 0 0 0 0 0 0 0
$$ ##$DIGIFA= (0..7)
$$ 0 0 0 0 0 0 0 0
$$ ##$DIGIFOURIER= 0
$$ ##$DIGIHA= (0..7)
$$ 0 0 0 0 0 0 0 0
$$ ##$DIGIHAF= (0..7)
$$ 0 0 0 0 0 0 0 0
$$ ##$DIGIHRD= (0..7)
$$ 0 0 0 0 0 0 0 0
$$ ##$DIGIIA= (0..7)
$$ 0 0 0 0 0 0 0 0
$$ ##$DIGIO16= (0..7)
$$ 0 0 0 0 0 0 0 0
$$ ##$DIGISA= (0..7)
$$ 0 0 0 0 0 0 0 0
$$ ##$DIGISAF= (0..7)
$$ 0 0 0 0 0 0 0 0
$$ ##$DIGISL= (0..7)
$$ 0 0 0 0 0 0 0 0
$$ ##$DIGITYI= (0..7)
$$ 0 0 0 0 0 0 0 0
$$ ##$DIGITYP= (0..7)
$$ 0 0 0 0 0 0 0 0
$$ ##$DIGITZ= 0
$$ ##$DPPFAC= 1
$$ ##$DRMSETH= <no>
$$ ##$DRU= yes
$$ ##$DRUETH= (0..33)
$$ <no> <149.236.99.89> <no> <no> <no> <no> <no> <no> <no> <no> <no> <no>
$$ <no> <no> <no> <no> <no> <no> <no> <no> <no> <no> <no> <no> <no> <no> <no>
$$ <no> <no> <no> <no> <no> <no> <>
$$ ##$Description= <B400B11>
$$ ##$DppType= 0
$$ ##$FCUMEM= (0..7)
$$ 16777208 16777208 0 0 0 0 0 0
$$ ##$FCUPAL= (0..7)
$$ 0 0 0 0 0 0 0 0
$$ ##$FGSVTY= <no>
$$ ##$FQMIX= 0
$$ ##$FUNCMOD= <>
$$ ##$FourPeriBdEth= <no>
$$ ##$FourShimBdEth= <no>
$$ ##$FourierPicsCon= no
$$ ##$GCUTYPE= 10
$$ ##$GCUTYPE2= 0
$$ ##$GPREDEL= 0
$$ ##$GPSCUTY= <no>
$$ ##$GRADRES= 5
$$ ##$GTUTY= <no>
$$ ##$GcConn= (0..1)
$$ 1 0
$$ ##$GradAmpGain= (0..7)
$$ 0 0 0 0 0 0 0 0
$$ ##$GradAmpMaxCurX= (0..7)
$$ 0 0 0 0 0 0 0 0
$$ ##$GradAmpMaxCurY= (0..7)
$$ 0 0 0 0 0 0 0 0
$$ ##$GradAmpMaxCurZ= (0..7)
$$ 9.99999904632568 0 0 0 0 0 0 0
$$ ##$GradAmpName= (0..7)
$$ <GAB in BSMS> <> <> <> <> <> <> <>
$$ ##$GradAmpPN= (0..7)
$$ <> <> <> <> <> <> <> <>
$$ ##$GradAmpSN= (0..7)
$$ <> <> <> <> <> <> <> <>
$$ ##$GradAmpType= (0..7)
$$ 2 0 0 0 0 0 0 0
$$ ##$GradPowClkCtrl= 0
$$ ##$GradPowClkTime= 0
$$ ##$GradPowImax= 0
$$ ##$GradPowType= 0
$$ ##$GradPowVmax= 0
$$ ##$HDIETH= (0..5)
$$ <> <no> <no> <no> <no> <>
$$ ##$HFAC= 3
$$ ##$HPCU= 0
$$ ##$HPCUTY= <no>
$$ ##$HPTXLP= (0..3)
$$ -1 -1 -1 -1
$$ ##$HPTXPI= (0..3)
$$ 0 0 0 0
$$ ##$HPTXPO= (0..3)
$$ 0 0 0 0
$$ ##$HPTXTY= (0..3)
$$ 0 0 0 0
$$ ##$HpprCoverType= 2
$$ ##$IF451= 0
$$ ##$IFREQ= 1
$$ ##$INJPTY= <no>
$$ ##$INTFPR= 0
$$ ##$IPSOETH= <149.236.99.141>
$$ ##$IPSOTYPE= 2
$$ ##$LDUETH= <no>
$$ ##$LOCKCONF= <DLMT>
$$ ##$LOCKTY= <no>
$$ ##$LOCSWID= 0
$$ ##$LOCSWIF= 0
$$ ##$LVDSSPLITETH= (0..5)
$$ <> <no> <no> <no> <no> <>
$$ ##$Location= <UK>
$$ ##$M2FAC= 0
$$ ##$MAS= 0
$$ ##$MASETIME= 10
$$ ##$MASITIME= 10
$$ ##$MASTY= <no>
$$ ##$MAS_CT= 5
$$ ##$MAS_SG= 0
$$ ##$MAS_TO= 0
$$ ##$MEMPRM= 0
$$ ##$MHFAC= 0
$$ ##$MXFAC= 0
$$ ##$MagnCoilPnSn= <>
$$ ##$MagnDewarPnSn= <>
$$ ##$MasEth= <no>
$$ ##$NAMPD= (0..17)
$$ <> <HPLNA 19F1H> <2H> <XBB19F 2HS> <> <> <> <> <> <> <> <> <> <> <> <>
$$ <> <>
$$ ##$NFCU= 2
$$ ##$NFRED= 0
$$ ##$NMRCH= 2
$$ ##$NMRMEM= 16384
$$ ##$NPSGU= 0
$$ ##$NRCU= 1
$$ ##$NROUT= 0
$$ ##$NSGU= 2
$$ ##$OrderNo= <10105932>
$$ ##$PAMPF1= (0..15)
$$ 75 56 96 64 0 0 0 0 0 0 0 0 0 0 0 0
$$ ##$PAMPF2= (0..15)
$$ 0 0 0 0 0 0 0 0 0 0 0 0 0 0 0 0
$$ ##$PAMPF3= (0..15)
$$ 0 0 0 0 0 0 0 0 0 0 0 0 0 0 0 0
$$ ##$PAMPF4= (0..15)
$$ 0 0 0 0 0 0 0 0 0 0 0 0 0 0 0 0
$$ ##$PAMPF5= (0..15)
$$ 0 0 0 0 0 0 0 0 0 0 0 0 0 0 0 0
$$ ##$PAMPF6= (0..15)
$$ 0 0 0 0 0 0 0 0 0 0 0 0 0 0 0 0
$$ ##$PAMPF7= (0..15)
$$ 0 0 0 0 0 0 0 0 0 0 0 0 0 0 0 0
$$ ##$PAMPF8= (0..15)
$$ 0 0 0 0 0 0 0 0 0 0 0 0 0 0 0 0
$$ ##$PH4= 0
$$ ##$PHF4TY= <no>
$$ ##$POWCHK= yes
$$ ##$PRAMD1= (0..7)
$$ 6 0 0 1610612736 0 0 0 0
$$ ##$PRAMD10= (0..7)
$$ 0 0 0 0 0 0 0 0
$$ ##$PRAMD11= (0..7)
$$ 0 0 0 0 0 0 0 0
$$ ##$PRAMD12= (0..7)
$$ 0 0 0 0 0 0 0 0
$$ ##$PRAMD13= (0..7)
$$ 0 0 0 0 0 0 0 0
$$ ##$PRAMD14= (0..7)
$$ 0 0 0 0 0 0 0 0
$$ ##$PRAMD15= (0..7)
$$ 0 0 0 0 0 0 0 0
$$ ##$PRAMD16= (0..7)
$$ 0 0 0 0 0 0 0 0
$$ ##$PRAMD17= (0..7)
$$ 0 0 0 0 0 0 0 0
$$ ##$PRAMD18= (0..7)
$$ 0 0 0 0 0 0 0 0
$$ ##$PRAMD19= (0..7)
$$ 0 0 0 0 0 0 0 0
$$ ##$PRAMD2= (0..7)
$$ 0 1048576 0 536870912 0 1048576 0 536870912
$$ ##$PRAMD20= (0..7)
$$ 0 0 0 0 0 0 0 0
$$ ##$PRAMD21= (0..7)
$$ 0 0 0 0 0 0 0 0
$$ ##$PRAMD3= (0..7)
$$ 2147483644 2131230719 2147483647 603979775 0 0 0 0
$$ ##$PRAMD4= (0..7)
$$ 0 0 0 0 0 0 0 0
$$ ##$PRAMD5= (0..7)
$$ 0 0 0 0 0 0 0 0
$$ ##$PRAMD6= (0..7)
$$ 0 0 0 0 0 0 0 0
$$ ##$PRAMD7= (0..7)
$$ 0 0 0 0 0 0 0 0
$$ ##$PRAMD8= (0..7)
$$ 0 0 0 0 0 0 0 0
$$ ##$PRAMD9= (0..7)
$$ 0 0 0 0 0 0 0 0
$$ ##$PRAMLED= (0..1)
$$ 0 0
$$ ##$PRAMP= (0..9)
$$ <> <tty10> <no> <no> <no> <no> <no> <no> <no> <>
$$ ##$PRAMPTP= 1
$$ ##$PREEMPTYPE= 0
$$ ##$PREPTY= <no>
$$ ##$PREREC= (0..15)
$$ 0 1 1 1 0 0 0 0 0 0 0 0 0 0 0 0
$$ ##$PRESHLD= 0
$$ ##$PTS160= -1
$$ ##$PTSA2X= (0..7)
$$ 0 0 0 0 0 0 0 0
$$ ##$PTSF2X= (0..7)
$$ 0 0 0 0 0 0 0 0
$$ ##$PTSFMX= (0..19)
$$ 649.9 649.9 0 0 0 0 0 0 0 0 0 0 0 0 0 0 0 0 0 0
$$ ##$PULCHK= no
$$ ##$PerMagATempSens= no
$$ ##$PerMagEth= <no>
$$ ##$PerMagFluxSens= no
$$ ##$PerMagMTempSens= no
$$ ##$PramDutyCycPerc= (0..15)
$$ 4 2 2 0 0 0 0 0 0 0 0 0 0 0 0 0
$$ ##$PramPeakPowerW= (0..15)
$$ 4000 500 500 0 0 0 0 0 0 0 0 0 0 0 0 0
$$ ##$PramPowerSwitch= (0..15)
$$ 0 0 0 0 0 0 0 0 0 0 0 0 0 0 0 0
$$ ##$PramPulWidthMs= (0..15)
$$ 10 0.1 0.1 0 0 0 0 0 0 0 0 0 0 0 0 0
$$ ##$PreampMod01PN= <Z103203>
$$ ##$PreampMod01SN= <00239>
$$ ##$PreampMod02PN= <Z003471>
$$ ##$PreampMod02SN= <00023>
$$ ##$PreampMod03PN= <Z003504>
$$ ##$PreampMod03SN= <01041>
$$ ##$PreampMod04PN= <>
$$ ##$PreampMod04SN= <>
$$ ##$PreampMod05PN= <>
$$ ##$PreampMod05SN= <>
$$ ##$PreampMod06PN= <>
$$ ##$PreampMod06SN= <>
$$ ##$PreampMod07PN= <>
$$ ##$PreampMod07SN= <>
$$ ##$PreampMod08PN= <>
$$ ##$PreampMod08SN= <>
$$ ##$PreampMod09PN= <>
$$ ##$PreampMod09SN= <>
$$ ##$PreampMod10PN= <>
$$ ##$PreampMod10SN= <>
$$ ##$PreampMod11PN= <>
$$ ##$PreampMod11SN= <>
$$ ##$PreampMod12PN= <>
$$ ##$PreampMod12SN= <>
$$ ##$PreampMod13PN= <>
$$ ##$PreampMod13SN= <>
$$ ##$PreampMod14PN= <>
$$ ##$PreampMod14SN= <>
$$ ##$PreampMod15PN= <>
$$ ##$PreampMod15SN= <>
$$ ##$PreampMod16PN= <>
$$ ##$PreampMod16SN= <>
$$ ##$PreampModBisDat= (0..15)
$$ 20130701 20130530 20130703 0 0 0 0 0 0 0 0 0 0 0 0 0
$$ ##$PreampModPN= (0..17)
$$ <Z103203> <Z003471> <Z003504> <> <> <> <> <> <> <> <> <> <> <> <> <> <>
$$ <>
$$ ##$PreampModSN= (0..17)
$$ <00239> <00023> <01041> <> <> <> <> <> <> <> <> <> <> <> <> <> <> <>
$$ ##$ProdigyEth= <149.236.99.144>
$$ ##$RCUCDS= (0..7)
$$ 0 0 0 0 0 0 0 0
$$ ##$RCUCFS= (0..7)
$$ 0 0 0 0 0 0 0 0
$$ ##$RCUCSS= (0..7)
$$ 0 0 0 0 0 0 0 0
$$ ##$RCUI2C1= (0..7)
$$ 0 0 0 0 0 0 0 0
$$ ##$RCUI2C2= (0..7)
$$ 0 0 0 0 0 0 0 0
$$ ##$RCUI2C3= (0..7)
$$ 0 0 0 0 0 0 0 0
$$ ##$RCUI2C4= (0..7)
$$ 0 0 0 0 0 0 0 0
$$ ##$RCUI2C5= (0..7)
$$ 0 0 0 0 0 0 0 0
$$ ##$RCUI2C6= (0..7)
$$ 0 0 0 0 0 0 0 0
$$ ##$RCUI2C7= (0..7)
$$ 0 0 0 0 0 0 0 0
$$ ##$RCUI2C8= (0..7)
$$ 0 0 0 0 0 0 0 0
$$ ##$RDCU= 0
$$ ##$RFSINPUT= (0..1)
$$ 0 0
$$ ##$RFSVTY= <no>
$$ ##$RGTYPE= (0..31)
$$ 9 0 0 0 0 0 0 0 0 0 0 0 0 0 0 0 0 0 0 0 0 0 0 0 0 0 0 0 0 0 0 0
$$ ##$RG_max= (0..31)
$$ 203 -1 -1 -1 -1 -1 -1 -1 -1 -1 -1 -1 -1 -1 -1 -1 -1 -1 -1 -1 -1 -1 -1 -1
$$ -1 -1 -1 -1 -1 -1 -1 -1
$$ ##$RG_min= (0..31)
$$ 0.25 -1 -1 -1 -1 -1 -1 -1 -1 -1 -1 -1 -1 -1 -1 -1 -1 -1 -1 -1 -1 -1 -1
$$ -1 -1 -1 -1 -1 -1 -1 -1 -1
$$ ##$RG_tab1= (0..255)
$$ 0.25 0.28 0.32 0.35 0.4 0.44 0.5 0.56 0.64 0.7 0.8 0.89 1 1.12 1.28 1.4
$$ 1.6 1.78 2 2.25 2.56 2.8 3.2 3.56 4 4.5 5 5.6 6.35 7.12 8 9 10 11.3 12.7
$$ 14.2 16 18 20.2 22.6 25.4 28.5 32 36 40.3 45.2 50.8 57 64 71.8 80.6 90.5
$$ 101 114 128 144 161 181 203 -1 -1 -1 -1 -1 -1 -1 -1 -1 -1 -1 -1 -1 -1 -1
$$ -1 -1 -1 -1 -1 -1 -1 -1 -1 -1 -1 -1 -1 -1 -1 -1 -1 -1 -1 -1 -1 -1 -1 -1
$$ -1 -1 -1 -1 -1 -1 -1 -1 -1 -1 -1 -1 -1 -1 -1 -1 -1 -1 -1 -1 -1 -1 -1 -1
$$ -1 -1 -1 -1 -1 -1 -1 -1 -1 -1 -1 -1 -1 -1 -1 -1 -1 -1 -1 -1 -1 -1 -1 -1
$$ -1 -1 -1 -1 -1 -1 -1 -1 -1 -1 -1 -1 -1 -1 -1 -1 -1 -1 -1 -1 -1 -1 -1 -1
$$ -1 -1 -1 -1 -1 -1 -1 -1 -1 -1 -1 -1 -1 -1 -1 -1 -1 -1 -1 -1 -1 -1 -1 -1
$$ -1 -1 -1 -1 -1 -1 -1 -1 -1 -1 -1 -1 -1 -1 -1 -1 -1 -1 -1 -1 -1 -1 -1 -1
$$ -1 -1 -1 -1 -1 -1 -1 -1 -1 -1 -1 -1 -1 -1 -1 -1 -1 -1 -1 -1 -1 -1 -1 -1
$$ -1 -1 -1 -1 -1 -1 -1 -1 -1 -1 -1 -1 -1 -1
$$ ##$RG_tab2= (0..255)
$$ -1 -1 -1 -1 -1 -1 -1 -1 -1 -1 -1 -1 -1 -1 -1 -1 -1 -1 -1 -1 -1 -1 -1 -1
$$ -1 -1 -1 -1 -1 -1 -1 -1 -1 -1 -1 -1 -1 -1 -1 -1 -1 -1 -1 -1 -1 -1 -1 -1
$$ -1 -1 -1 -1 -1 -1 -1 -1 -1 -1 -1 -1 -1 -1 -1 -1 -1 -1 -1 -1 -1 -1 -1 -1
$$ -1 -1 -1 -1 -1 -1 -1 -1 -1 -1 -1 -1 -1 -1 -1 -1 -1 -1 -1 -1 -1 -1 -1 -1
$$ -1 -1 -1 -1 -1 -1 -1 -1 -1 -1 -1 -1 -1 -1 -1 -1 -1 -1 -1 -1 -1 -1 -1 -1
$$ -1 -1 -1 -1 -1 -1 -1 -1 -1 -1 -1 -1 -1 -1 -1 -1 -1 -1 -1 -1 -1 -1 -1 -1
$$ -1 -1 -1 -1 -1 -1 -1 -1 -1 -1 -1 -1 -1 -1 -1 -1 -1 -1 -1 -1 -1 -1 -1 -1
$$ -1 -1 -1 -1 -1 -1 -1 -1 -1 -1 -1 -1 -1 -1 -1 -1 -1 -1 -1 -1 -1 -1 -1 -1
$$ -1 -1 -1 -1 -1 -1 -1 -1 -1 -1 -1 -1 -1 -1 -1 -1 -1 -1 -1 -1 -1 -1 -1 -1
$$ -1 -1 -1 -1 -1 -1 -1 -1 -1 -1 -1 -1 -1 -1 -1 -1 -1 -1 -1 -1 -1 -1 -1 -1
$$ -1 -1 -1 -1 -1 -1 -1 -1 -1 -1 -1 -1 -1 -1 -1 -1
$$ ##$RG_tab3= (0..255)
$$ -1 -1 -1 -1 -1 -1 -1 -1 -1 -1 -1 -1 -1 -1 -1 -1 -1 -1 -1 -1 -1 -1 -1 -1
$$ -1 -1 -1 -1 -1 -1 -1 -1 -1 -1 -1 -1 -1 -1 -1 -1 -1 -1 -1 -1 -1 -1 -1 -1
$$ -1 -1 -1 -1 -1 -1 -1 -1 -1 -1 -1 -1 -1 -1 -1 -1 -1 -1 -1 -1 -1 -1 -1 -1
$$ -1 -1 -1 -1 -1 -1 -1 -1 -1 -1 -1 -1 -1 -1 -1 -1 -1 -1 -1 -1 -1 -1 -1 -1
$$ -1 -1 -1 -1 -1 -1 -1 -1 -1 -1 -1 -1 -1 -1 -1 -1 -1 -1 -1 -1 -1 -1 -1 -1
$$ -1 -1 -1 -1 -1 -1 -1 -1 -1 -1 -1 -1 -1 -1 -1 -1 -1 -1 -1 -1 -1 -1 -1 -1
$$ -1 -1 -1 -1 -1 -1 -1 -1 -1 -1 -1 -1 -1 -1 -1 -1 -1 -1 -1 -1 -1 -1 -1 -1
$$ -1 -1 -1 -1 -1 -1 -1 -1 -1 -1 -1 -1 -1 -1 -1 -1 -1 -1 -1 -1 -1 -1 -1 -1
$$ -1 -1 -1 -1 -1 -1 -1 -1 -1 -1 -1 -1 -1 -1 -1 -1 -1 -1 -1 -1 -1 -1 -1 -1
$$ -1 -1 -1 -1 -1 -1 -1 -1 -1 -1 -1 -1 -1 -1 -1 -1 -1 -1 -1 -1 -1 -1 -1 -1
$$ -1 -1 -1 -1 -1 -1 -1 -1 -1 -1 -1 -1 -1 -1 -1 -1
$$ ##$RG_tab4= (0..255)
$$ -1 -1 -1 -1 -1 -1 -1 -1 -1 -1 -1 -1 -1 -1 -1 -1 -1 -1 -1 -1 -1 -1 -1 -1
$$ -1 -1 -1 -1 -1 -1 -1 -1 -1 -1 -1 -1 -1 -1 -1 -1 -1 -1 -1 -1 -1 -1 -1 -1
$$ -1 -1 -1 -1 -1 -1 -1 -1 -1 -1 -1 -1 -1 -1 -1 -1 -1 -1 -1 -1 -1 -1 -1 -1
$$ -1 -1 -1 -1 -1 -1 -1 -1 -1 -1 -1 -1 -1 -1 -1 -1 -1 -1 -1 -1 -1 -1 -1 -1
$$ -1 -1 -1 -1 -1 -1 -1 -1 -1 -1 -1 -1 -1 -1 -1 -1 -1 -1 -1 -1 -1 -1 -1 -1
$$ -1 -1 -1 -1 -1 -1 -1 -1 -1 -1 -1 -1 -1 -1 -1 -1 -1 -1 -1 -1 -1 -1 -1 -1
$$ -1 -1 -1 -1 -1 -1 -1 -1 -1 -1 -1 -1 -1 -1 -1 -1 -1 -1 -1 -1 -1 -1 -1 -1
$$ -1 -1 -1 -1 -1 -1 -1 -1 -1 -1 -1 -1 -1 -1 -1 -1 -1 -1 -1 -1 -1 -1 -1 -1
$$ -1 -1 -1 -1 -1 -1 -1 -1 -1 -1 -1 -1 -1 -1 -1 -1 -1 -1 -1 -1 -1 -1 -1 -1
$$ -1 -1 -1 -1 -1 -1 -1 -1 -1 -1 -1 -1 -1 -1 -1 -1 -1 -1 -1 -1 -1 -1 -1 -1
$$ -1 -1 -1 -1 -1 -1 -1 -1 -1 -1 -1 -1 -1 -1 -1 -1
$$ ##$RG_tab5= (0..255)
$$ -1 -1 -1 -1 -1 -1 -1 -1 -1 -1 -1 -1 -1 -1 -1 -1 -1 -1 -1 -1 -1 -1 -1 -1
$$ -1 -1 -1 -1 -1 -1 -1 -1 -1 -1 -1 -1 -1 -1 -1 -1 -1 -1 -1 -1 -1 -1 -1 -1
$$ -1 -1 -1 -1 -1 -1 -1 -1 -1 -1 -1 -1 -1 -1 -1 -1 -1 -1 -1 -1 -1 -1 -1 -1
$$ -1 -1 -1 -1 -1 -1 -1 -1 -1 -1 -1 -1 -1 -1 -1 -1 -1 -1 -1 -1 -1 -1 -1 -1
$$ -1 -1 -1 -1 -1 -1 -1 -1 -1 -1 -1 -1 -1 -1 -1 -1 -1 -1 -1 -1 -1 -1 -1 -1
$$ -1 -1 -1 -1 -1 -1 -1 -1 -1 -1 -1 -1 -1 -1 -1 -1 -1 -1 -1 -1 -1 -1 -1 -1
$$ -1 -1 -1 -1 -1 -1 -1 -1 -1 -1 -1 -1 -1 -1 -1 -1 -1 -1 -1 -1 -1 -1 -1 -1
$$ -1 -1 -1 -1 -1 -1 -1 -1 -1 -1 -1 -1 -1 -1 -1 -1 -1 -1 -1 -1 -1 -1 -1 -1
$$ -1 -1 -1 -1 -1 -1 -1 -1 -1 -1 -1 -1 -1 -1 -1 -1 -1 -1 -1 -1 -1 -1 -1 -1
$$ -1 -1 -1 -1 -1 -1 -1 -1 -1 -1 -1 -1 -1 -1 -1 -1 -1 -1 -1 -1 -1 -1 -1 -1
$$ -1 -1 -1 -1 -1 -1 -1 -1 -1 -1 -1 -1 -1 -1 -1 -1
$$ ##$RG_tab6= (0..255)
$$ -1 -1 -1 -1 -1 -1 -1 -1 -1 -1 -1 -1 -1 -1 -1 -1 -1 -1 -1 -1 -1 -1 -1 -1
$$ -1 -1 -1 -1 -1 -1 -1 -1 -1 -1 -1 -1 -1 -1 -1 -1 -1 -1 -1 -1 -1 -1 -1 -1
$$ -1 -1 -1 -1 -1 -1 -1 -1 -1 -1 -1 -1 -1 -1 -1 -1 -1 -1 -1 -1 -1 -1 -1 -1
$$ -1 -1 -1 -1 -1 -1 -1 -1 -1 -1 -1 -1 -1 -1 -1 -1 -1 -1 -1 -1 -1 -1 -1 -1
$$ -1 -1 -1 -1 -1 -1 -1 -1 -1 -1 -1 -1 -1 -1 -1 -1 -1 -1 -1 -1 -1 -1 -1 -1
$$ -1 -1 -1 -1 -1 -1 -1 -1 -1 -1 -1 -1 -1 -1 -1 -1 -1 -1 -1 -1 -1 -1 -1 -1
$$ -1 -1 -1 -1 -1 -1 -1 -1 -1 -1 -1 -1 -1 -1 -1 -1 -1 -1 -1 -1 -1 -1 -1 -1
$$ -1 -1 -1 -1 -1 -1 -1 -1 -1 -1 -1 -1 -1 -1 -1 -1 -1 -1 -1 -1 -1 -1 -1 -1
$$ -1 -1 -1 -1 -1 -1 -1 -1 -1 -1 -1 -1 -1 -1 -1 -1 -1 -1 -1 -1 -1 -1 -1 -1
$$ -1 -1 -1 -1 -1 -1 -1 -1 -1 -1 -1 -1 -1 -1 -1 -1 -1 -1 -1 -1 -1 -1 -1 -1
$$ -1 -1 -1 -1 -1 -1 -1 -1 -1 -1 -1 -1 -1 -1 -1 -1
$$ ##$RG_tab7= (0..255)
$$ -1 -1 -1 -1 -1 -1 -1 -1 -1 -1 -1 -1 -1 -1 -1 -1 -1 -1 -1 -1 -1 -1 -1 -1
$$ -1 -1 -1 -1 -1 -1 -1 -1 -1 -1 -1 -1 -1 -1 -1 -1 -1 -1 -1 -1 -1 -1 -1 -1
$$ -1 -1 -1 -1 -1 -1 -1 -1 -1 -1 -1 -1 -1 -1 -1 -1 -1 -1 -1 -1 -1 -1 -1 -1
$$ -1 -1 -1 -1 -1 -1 -1 -1 -1 -1 -1 -1 -1 -1 -1 -1 -1 -1 -1 -1 -1 -1 -1 -1
$$ -1 -1 -1 -1 -1 -1 -1 -1 -1 -1 -1 -1 -1 -1 -1 -1 -1 -1 -1 -1 -1 -1 -1 -1
$$ -1 -1 -1 -1 -1 -1 -1 -1 -1 -1 -1 -1 -1 -1 -1 -1 -1 -1 -1 -1 -1 -1 -1 -1
$$ -1 -1 -1 -1 -1 -1 -1 -1 -1 -1 -1 -1 -1 -1 -1 -1 -1 -1 -1 -1 -1 -1 -1 -1
$$ -1 -1 -1 -1 -1 -1 -1 -1 -1 -1 -1 -1 -1 -1 -1 -1 -1 -1 -1 -1 -1 -1 -1 -1
$$ -1 -1 -1 -1 -1 -1 -1 -1 -1 -1 -1 -1 -1 -1 -1 -1 -1 -1 -1 -1 -1 -1 -1 -1
$$ -1 -1 -1 -1 -1 -1 -1 -1 -1 -1 -1 -1 -1 -1 -1 -1 -1 -1 -1 -1 -1 -1 -1 -1
$$ -1 -1 -1 -1 -1 -1 -1 -1 -1 -1 -1 -1 -1 -1 -1 -1
$$ ##$RG_tab8= (0..255)
$$ -1 -1 -1 -1 -1 -1 -1 -1 -1 -1 -1 -1 -1 -1 -1 -1 -1 -1 -1 -1 -1 -1 -1 -1
$$ -1 -1 -1 -1 -1 -1 -1 -1 -1 -1 -1 -1 -1 -1 -1 -1 -1 -1 -1 -1 -1 -1 -1 -1
$$ -1 -1 -1 -1 -1 -1 -1 -1 -1 -1 -1 -1 -1 -1 -1 -1 -1 -1 -1 -1 -1 -1 -1 -1
$$ -1 -1 -1 -1 -1 -1 -1 -1 -1 -1 -1 -1 -1 -1 -1 -1 -1 -1 -1 -1 -1 -1 -1 -1
$$ -1 -1 -1 -1 -1 -1 -1 -1 -1 -1 -1 -1 -1 -1 -1 -1 -1 -1 -1 -1 -1 -1 -1 -1
$$ -1 -1 -1 -1 -1 -1 -1 -1 -1 -1 -1 -1 -1 -1 -1 -1 -1 -1 -1 -1 -1 -1 -1 -1
$$ -1 -1 -1 -1 -1 -1 -1 -1 -1 -1 -1 -1 -1 -1 -1 -1 -1 -1 -1 -1 -1 -1 -1 -1
$$ -1 -1 -1 -1 -1 -1 -1 -1 -1 -1 -1 -1 -1 -1 -1 -1 -1 -1 -1 -1 -1 -1 -1 -1
$$ -1 -1 -1 -1 -1 -1 -1 -1 -1 -1 -1 -1 -1 -1 -1 -1 -1 -1 -1 -1 -1 -1 -1 -1
$$ -1 -1 -1 -1 -1 -1 -1 -1 -1 -1 -1 -1 -1 -1 -1 -1 -1 -1 -1 -1 -1 -1 -1 -1
$$ -1 -1 -1 -1 -1 -1 -1 -1 -1 -1 -1 -1 -1 -1 -1 -1
$$ ##$RG_tabA= (0..255)
$$ 0.25 0.28 0.32 0.35 0.4 0.44 0.5 0.56 0.64 0.7 0.8 0.89 1 1.12 1.28 1.4
$$ 1.6 1.78 2 2.25 2.56 2.8 3.2 3.56 4 4.5 5 5.6 6.35 7.12 8 9 10 11.3 12.7
$$ 14.2 16 18 20.2 22.6 25.4 28.5 32 36 40.3 45.2 50.8 57 64 71.8 80.6 90.5
$$ 101 114 128 144 161 181 203 -1 -1 -1 -1 -1 -1 -1 -1 -1 -1 -1 -1 -1 -1 -1
$$ -1 -1 -1 -1 -1 -1 -1 -1 -1 -1 -1 -1 -1 -1 -1 -1 -1 -1 -1 -1 -1 -1 -1 -1
$$ -1 -1 -1 -1 -1 -1 -1 -1 -1 -1 -1 -1 -1 -1 -1 -1 -1 -1 -1 -1 -1 -1 -1 -1
$$ -1 -1 -1 -1 -1 -1 -1 -1 -1 -1 -1 -1 -1 -1 -1 -1 -1 -1 -1 -1 -1 -1 -1 -1
$$ -1 -1 -1 -1 -1 -1 -1 -1 -1 -1 -1 -1 -1 -1 -1 -1 -1 -1 -1 -1 -1 -1 -1 -1
$$ -1 -1 -1 -1 -1 -1 -1 -1 -1 -1 -1 -1 -1 -1 -1 -1 -1 -1 -1 -1 -1 -1 -1 -1
$$ -1 -1 -1 -1 -1 -1 -1 -1 -1 -1 -1 -1 -1 -1 -1 -1 -1 -1 -1 -1 -1 -1 -1 -1
$$ -1 -1 -1 -1 -1 -1 -1 -1 -1 -1 -1 -1 -1 -1 -1 -1 -1 -1 -1 -1 -1 -1 -1 -1
$$ -1 -1 -1 -1 -1 -1 -1 -1 -1 -1 -1 -1 -1 -1
$$ ##$ROBOTTY= <no>
$$ ##$ROUT14= (0..7)
$$ 0 0 0 0 0 0 0 0
$$ ##$ROUTER= -1
$$ ##$RX22TY= <no>
$$ ##$RXFMAX= (0..7)
$$ 647.5 -1 -1 -1 -1 -1 -1 -1
$$ ##$RXFMIN= (0..7)
$$ 5 -1 -1 -1 -1 -1 -1 -1
$$ ##$RXINTLV= (0..7)
$$ 1 0 0 0 0 0 0 0
$$ ##$RXMSTY= <no>
$$ ##$RockSwitchEth= <no>
$$ ##$SCMTY= <no>
$$ ##$SGUC1= (0..15)
$$ 17 18 0 0 0 0 0 0 0 0 0 0 0 0 0 0
$$ ##$SGUC2= (0..15)
$$ 33 256 0 0 0 0 0 0 0 0 0 0 0 0 0 0
$$ ##$SLCBCONF= <SHNV>
$$ ##$SPECTR= 10
$$ ##$SY2FLAG= 0
$$ ##$SYNCTRIG= 11
$$ ##$SamChgEth= (0..3)
$$ <149.236.99.140> <no> <no> <no>
$$ ##$SamChgProtocol= (0..3)
$$ <SOAP> <> <> <>
$$ ##$ServiceNo= <>
$$ ##$Sgu1PowerLevels= (0..7)
$$ 90 74 58 42 26 10 0 0
$$ ##$Sgu2PowerLevels= (0..7)
$$ 90 74 58 42 26 10 0 0
$$ ##$Sgu3PowerLevels= (0..7)
$$ 0 0 0 0 0 0 0 0
$$ ##$Sgu4PowerLevels= (0..7)
$$ 0 0 0 0 0 0 0 0
$$ ##$Sgu5PowerLevels= (0..7)
$$ 0 0 0 0 0 0 0 0
$$ ##$Sgu6PowerLevels= (0..7)
$$ 0 0 0 0 0 0 0 0
$$ ##$Sgu7PowerLevels= (0..7)
$$ 0 0 0 0 0 0 0 0
$$ ##$Sgu8PowerLevels= (0..7)
$$ 0 0 0 0 0 0 0 0
$$ ##$SguType= 3
$$ ##$ShimMaxVal= 32760
$$ ##$ShimPow1Ch2Sh= (0..38)
$$ 0 0 0 0 0 0 0 0 0 0 0 0 0 0 0 0 0 0 0 0 0 0 0 0 0 0 0 0 0 0 0 0 0 0 0 0
$$ 0 0 0
$$ ##$ShimPow1Imax= (0..38)
$$ 0 0 0 0 0 0 0 0 0 0 0 0 0 0 0 0 0 0 0 0 0 0 0 0 0 0 0 0 0 0 0 0 0 0 0 0
$$ 0 0 0
$$ ##$ShimPow1NChan= 0
$$ ##$ShimPow1TotIMax= 0
$$ ##$ShimPow1Vmax= (0..38)
$$ 0 0 0 0 0 0 0 0 0 0 0 0 0 0 0 0 0 0 0 0 0 0 0 0 0 0 0 0 0 0 0 0 0 0 0 0
$$ 0 0 0
$$ ##$ShimPow2Ch2Sh= (0..38)
$$ 0 0 0 0 0 0 0 0 0 0 0 0 0 0 0 0 0 0 0 0 0 0 0 0 0 0 0 0 0 0 0 0 0 0 0 0
$$ 0 0 0
$$ ##$ShimPow2Imax= (0..38)
$$ 0 0 0 0 0 0 0 0 0 0 0 0 0 0 0 0 0 0 0 0 0 0 0 0 0 0 0 0 0 0 0 0 0 0 0 0
$$ 0 0 0
$$ ##$ShimPow2NChan= 0
$$ ##$ShimPow2TotIMax= 0
$$ ##$ShimPow2Vmax= (0..38)
$$ 0 0 0 0 0 0 0 0 0 0 0 0 0 0 0 0 0 0 0 0 0 0 0 0 0 0 0 0 0 0 0 0 0 0 0 0
$$ 0 0 0
$$ ##$ShimPow3Ch2Sh= (0..38)
$$ 0 0 0 0 0 0 0 0 0 0 0 0 0 0 0 0 0 0 0 0 0 0 0 0 0 0 0 0 0 0 0 0 0 0 0 0
$$ 0 0 0
$$ ##$ShimPow3Imax= (0..38)
$$ 0 0 0 0 0 0 0 0 0 0 0 0 0 0 0 0 0 0 0 0 0 0 0 0 0 0 0 0 0 0 0 0 0 0 0 0
$$ 0 0 0
$$ ##$ShimPow3NChan= 0
$$ ##$ShimPow3TotIMax= 0
$$ ##$ShimPow3Vmax= (0..38)
$$ 0 0 0 0 0 0 0 0 0 0 0 0 0 0 0 0 0 0 0 0 0 0 0 0 0 0 0 0 0 0 0 0 0 0 0 0
$$ 0 0 0
$$ ##$ShimPow4Ch2Sh= (0..38)
$$ 0 0 0 0 0 0 0 0 0 0 0 0 0 0 0 0 0 0 0 0 0 0 0 0 0 0 0 0 0 0 0 0 0 0 0 0
$$ 0 0 0
$$ ##$ShimPow4Imax= (0..38)
$$ 0 0 0 0 0 0 0 0 0 0 0 0 0 0 0 0 0 0 0 0 0 0 0 0 0 0 0 0 0 0 0 0 0 0 0 0
$$ 0 0 0
$$ ##$ShimPow4NChan= 0
$$ ##$ShimPow4TotIMax= 0
$$ ##$ShimPow4Vmax= (0..38)
$$ 0 0 0 0 0 0 0 0 0 0 0 0 0 0 0 0 0 0 0 0 0 0 0 0 0 0 0 0 0 0 0 0 0 0 0 0
$$ 0 0 0
$$ ##$ShimPowMaxUA= (0..63)
$$ 130000 130000 130000 130000 130000 130000 130000 130000 130000 130000 130000
$$ 130000 130000 130000 130000 130000 130000 130000 130000 130000 0 0 0 0
$$ 0 0 0 0 0 0 0 0 0 0 0 0 0 0 0 0 0 0 0 0 0 0 0 0 0 0 0 0 0 0 0 0 0 0 0 0
$$ 0 0 0 0
$$ ##$ShimPowMaxUC= (0..63)
$$ 130000 130000 130000 130000 130000 130000 130000 130000 130000 130000 130000
$$ 130000 130000 130000 130000 130000 130000 130000 130000 130000 0 0 0 0
$$ 0 0 0 0 0 0 0 0 0 0 0 0 0 0 0 0 0 0 0 0 0 0 0 0 0 0 0 0 0 0 0 0 0 0 0 0
$$ 0 0 0 0
$$ ##$ShimPowMaxUG= (0..63)
$$ 524287 524287 524287 524287 524287 524287 524287 524287 524287 524287 524287
$$ 524287 524287 524287 524287 524287 524287 524287 524287 524287 0 0 0 0
$$ 0 0 0 0 0 0 0 0 0 0 0 0 0 0 0 0 0 0 0 0 0 0 0 0 0 0 0 0 0 0 0 0 0 0 0 0
$$ 0 0 0 0
$$ ##$ShimPowNum= 0
$$ ##$ShimPowRcbType= 3
$$ ##$ShimPowRes= (0..63)
$$ 1e-20 1e-20 1e-20 1e-20 1e-20 1e-20 1e-20 1e-20 1e-20 1e-20 1e-20 1e-20
$$ 1e-20 1e-20 1e-20 1e-20 1e-20 1e-20 1e-20 1e-20 0 0 0 0 0 0 0 0 0 0 0 0
$$ 0 0 0 0 0 0 0 0 0 0 0 0 0 0 0 0 0 0 0 0 0 0 0 0 0 0 0 0 0 0 0 0
$$ ##$ShimPowRng0= (0..63)
$$ 1 1 1 1 1 1 1 1 1 1 1 1 1 1 1 1 1 1 1 1 0 0 0 0 0 0 0 0 0 0 0 0 0 0 0 0
$$ 0 0 0 0 0 0 0 0 0 0 0 0 0 0 0 0 0 0 0 0 0 0 0 0 0 0 0 0
$$ ##$ShimPowRng1= (0..63)
$$ 1 1 1 1 1 1 1 1 1 1 1 1 1 1 1 1 1 1 1 1 0 0 0 0 0 0 0 0 0 0 0 0 0 0 0 0
$$ 0 0 0 0 0 0 0 0 0 0 0 0 0 0 0 0 0 0 0 0 0 0 0 0 0 0 0 0
$$ ##$ShimPowRng2= (0..63)
$$ 1 1 1 1 1 1 1 1 1 1 1 1 1 1 1 1 1 1 1 1 0 0 0 0 0 0 0 0 0 0 0 0 0 0 0 0
$$ 0 0 0 0 0 0 0 0 0 0 0 0 0 0 0 0 0 0 0 0 0 0 0 0 0 0 0 0
$$ ##$ShimPowRng3= (0..63)
$$ 1 1 1 1 1 1 1 1 1 1 1 1 1 1 1 1 1 1 1 1 0 0 0 0 0 0 0 0 0 0 0 0 0 0 0 0
$$ 0 0 0 0 0 0 0 0 0 0 0 0 0 0 0 0 0 0 0 0 0 0 0 0 0 0 0 0
$$ ##$ShimPowType1= 0
$$ ##$ShimPowType2= 0
$$ ##$ShimPowType3= 0
$$ ##$ShimPowType4= 0
$$ ##$ShimSysAngle= <>
$$ ##$ShimSysFunc= (0..63)
$$ 1 2 3 4 5 7 9 11 15 16 8 10 12 14 6 17 13 18 19 20 0 0 0 0 0 0 0 0 0 0
$$ 0 0 0 0 0 0 0 0 0 0 0 0 0 0 0 0 0 0 0 0 0 0 0 0 0 0 0 0 0 0 0 0 0 0
$$ ##$ShimSysMatId= <no>
$$ ##$ShimSysMatrix= 1
$$ ##$ShimSysOffset= <>
$$ ##$ShimSysType= 1
$$ ##$ShimUnit= 0
$$ ##$TFXNUM= 0
$$ ##$TOSITY= <no>
$$ ##$TRIPLO2= 0
$$ ##$VTU= 2
$$ ##$VTUETH= <149.236.99.21>
$$ ##$VTUTY= <no>
$$ ##$WBREFAM= (0..15)
$$ 99.8 100 100 100 100 100 100 100 100 100 100 100 100 100 100 100
$$ ##$WBREFLM= (0..15)
$$ 1 0 0 0 0 0 0 0 0 0 0 0 0 0 0 0
$$ ##$WBREFPH= (0..15)
$$ -0.02 0 0 0 0 0 0 0 0 0 0 0 0 0 0 0
$$ ##$WBSGU= (0..15)
$$ 0 0 0 0 0 0 0 0 0 0 0 0 0 0 0 0
$$ ##$XFAC= 2
$$ ##END=
##$RELAX= 
##$BRUKER FILE PROC=clevels
$$ ##TITLE= Parameter file, TopSpin 4.3.0
$$ ##JCAMPDX= 5.0
$$ ##DATATYPE= Parameter Values
$$ ##NPOINTS= 17	$$ modification sequence number
$$ ##ORIGIN= Bruker BioSpin GmbH
$$ ##OWNER= nmrsu
$$ $$ 2024-12-03 11:03:41.179 +0000  DS\n82265as@E-10LXXG2310KN9
$$ $$ C:/Users/n82265as/The University of Manchester Dropbox/Aminata Sakho/Winter chemicals/data/original_good/20241129-1030-B400_B.11-10/13/pdata/1/clevels
$$ $$ process C:\Bruker\TopSpin4.3.0\prog\mod\dataserver.exe
$$ ##$LEVELS= (0..255)
$$ 44943.7 53932.4 64718.9 77662.7 93195.3 111834.3 134201.2 161041.4 193249.7
$$ 231899.6 278279.5 333935.5 400722.5 480867.1 577040.5 692448.6 830938.3
$$ 997125.9 1196551.1 1435861.3 0 0 0 0 0 0 0 0 0 0 0 0 0 0 0 0 0 0 0 0 0
$$ 0 0 0 0 0 0 0 0 0 0 0 0 0 0 0 0 0 0 0 0 0 0 0 0 0 0 0 0 0 0 0 0 0 0 0 0
$$ 0 0 0 0 0 0 0 0 0 0 0 0 0 0 0 0 0 0 0 0 0 0 0 0 0 0 0 0 0 0 0 0 0 0 0 0
$$ 0 0 0 0 0 0 0 0 0 0 0 0 0 0 0 0 0 0 0 0 0 0 0 0 0 0 0 0 0 0 0 0 0 0 0 0
$$ 0 0 0 0 0 0 0 0 0 0 0 0 0 0 0 0 0 0 0 0 0 0 0 0 0 0 0 0 0 0 0 0 0 0 0 0
$$ 0 0 0 0 0 0 0 0 0 0 0 0 0 0 0 0 0 0 0 0 0 0 0 0 0 0 0 0 0 0 0 0 0 0 0 0
$$ 0 0 0 0 0 0 0 0 0 0 0 0 0 0 0 0 0 0 0 0 0 0 0 0 0 0 0 0 0 0 0 0 0 0 0
$$ ##$LEVSIGN= 1
$$ ##$MAXLEV= 20
$$ ##$METHOD= 0
$$ ##$NEGBASE= -44943.7
$$ ##$NEGINCR= 1.2
$$ ##$POSBASE= 44943.7
$$ ##$POSINCR= 1.2
$$ ##END=
##$RELAX= 
##$BRUKER FILE PROC=eretic
$$ ##TITLE= Parameter file, TopSpin 3.6.2
$$ ##JCAMPDX= 5.0
$$ ##DATATYPE= Parameter Values
$$ ##NPOINTS= 1	$$ modification sequence number
$$ ##ORIGIN= Bruker BioSpin GmbH
$$ ##OWNER= nmrsu
$$ $$ 2024-11-29 18:02:21.374 +0000  nmrsu@cyan.ch.man.ac.uk
$$ $$ /mnt/nasr/NMR/Service/data/n82265as/nmr/20241129-1030-B400_B.11-10/13/pdata/1/eretic
$$ $$ process /opt/topspin3.6.2/prog/mod/dirdata
$$ ##$CAL= 1
$$ ##$CALACQUDATE= <>
$$ ##$CALDATE= <>
$$ ##$ECONC= 50
$$ ##$ECONCU= <mmol/l>
$$ ##$ECORR= 1
$$ ##$EINT= 8650966.99609375
$$ ##$ELW= 1
$$ ##$EPOS= 0
$$ ##$ESCAL= 1
$$ ##$EUNIT= <>
$$ ##$INTSCL= 1
$$ ##$NS= 4
$$ ##$P1= 11.75
$$ ##$PP= <noesy1d>
$$ ##$PROBHD= <>
$$ ##$QUANTACQUDATE= <>
$$ ##$QUANTDATE= <>
$$ ##$RECONC= 50
$$ ##$RECONCU= <mmol/l>
$$ ##$REFSPEC= <C:/Bruker/TopSpin3.1.6/data/PTG/nmr/fastlane_quantref_cyclo/12>
$$ ##$REINT= 8650966.99609375
$$ ##$REINTERR= 1032.15924844093
$$ ##$RELW= 1
$$ ##$RENSPIN= 1
$$ ##$REPOS= 0
$$ ##$REREG= <8.364570787421922/8.138265153457409>
$$ ##$REUNIT= <>
$$ ##$RG= 15.61
$$ ##$RORIGIN= <C:/Bruker/TopSpin3.1.6/data/lancaster/nmr/Dec06-2012-lancaster/26/pdata/1>
$$ ##$RPROBHD= <5 mm CPPBBO BB-1H/19F/D Z-GRD Z122623/0009>
$$ ##$SI= 65536
$$ ##$SW= 20.5524040342477
$$ ##$TE= 298.0007
$$ ##$scaledByNS= no
$$ ##$scaledByRG= no
$$ ##END=
##$RELAX= 
##$BRUKER FILE PROC=parm.txt
$$ 
$$ Current Data Parameters
$$ NAME     20241129-1030-B400_B.11-10              
$$ EXPNO                13              
$$ PROCNO                1              
$$ 
$$ F2 - Acquisition Parameters
$$ Date_          20241129              
$$ Time              17.37 h            
$$ INSTRUM           spect              
$$ PROBHD   Z108618_0671 (              
$$ PULPROG        cosygpqf              
$$ TD                 1024              
$$ SOLVENT            C6D6              
$$ NS                    4              
$$ DS                    8              
$$ SWH            4795.396 Hz           
$$ FIDRES         9.366009 Hz           
$$ AQ            0.1067691 sec          
$$ RG                  128              
$$ DW              104.267 usec         
$$ DE                 6.50 usec         
$$ TE                298.0 K            
$$ D0           0.00000300 sec          
$$ D1           2.00000000 sec          
$$ D13          0.00000400 sec          
$$ D16          0.00020000 sec          
$$ IN0          0.00020860 sec          
$$ SPARSELI              0              
$$ TDav                  1              
$$ SFO1        400.0722004 MHz          
$$ NUC1                 1H              
$$ P0                15.00 usec         
$$ P1                15.00 usec         
$$ PLW1        10.69200039 W            
$$ GPNAM[1]       SINE.100              
$$ GPZ1              65.00 %            
$$ P16             1000.00 usec         
$$ 
$$ F1 - Acquisition parameters
$$ TD                  169              
$$ SFO1           400.0722 MHz          
$$ FIDRES        56.732117 Hz           
$$ SW               11.982 ppm          
$$ FnMODE               QF              
$$ 
$$ F2 - Processing parameters
$$ SI                 1024              
$$ SF          400.0700000 MHz          
$$ WDW               QSINE              
$$ SSB                   0              
$$ LB                    0 Hz           
$$ GB                    0              
$$ PC                 1.40              
$$ 
$$ F1 - Processing parameters
$$ SI                 1024              
$$ MC2                  QF              
$$ SF          400.0700000 MHz          
$$ WDW               QSINE              
$$ SSB                   0              
$$ LB                    0 Hz           
$$ GB                    0              
##$RELAX= 
$$ Bruker specific parameters
$$ --------------------------
##$DATPATH= <C:/Users/n82265as/The University of Manchester Dropbox/Aminata Sakho/Winter chemicals/data/original_good>
##$EXPNO= 13
##$NAME= <20241129-1030-B400_B.11-10>
##$PROCNO= 1
##$ACQT0= 1000000
##$AMP= (0..31)
100 100 100 100 100 100 100 100 100 100 100 100 100 100 100 100 100 100
100 100 100 100 100 100 100 100 100 100 100 100 100 100
##$AMPCOIL= (0..32)
-1 0 0 0 0 0 0 0 0 0 0 0 0 0 0 0 0 0 0 0 0 0 0 0 0 0 0 0 0 0 0 0 0
##$AQSEQ= 0
##$AQ_mod= 3
##$AUNM= <au_zg>
##$AUTOPOS= <10 >
##$BF1= 400.07
##$BF2= 400.07
##$BF3= 400.07
##$BF4= 400.07
##$BF5= 400.07
##$BF6= 400.07
##$BF7= 400.07
##$BF8= 400.07
##$BWFAC= (0..63)
0 0 0 0 0 0 0 0 0 0 0 0 0 0 0 0 0 0 0 0 0 0 0 0 0 0 0 0 0 0 0 0 0 0 0 0
0 0 0 0 0 0 0 0 0 0 0 0 0 0 0 0 0 0 0 0 0 0 0 0 0 0 0 0
##$BYTORDA= 0
##$CHANFCU= (0..24)
0 0 0 0 0 0 0 0 0 0 0 0 0 0 0 0 0 0 0 0 0 0 0 0 0
##$CHANREC= (0..24)
0 0 0 0 0 0 0 0 0 0 0 0 0 0 0 0 0 0 0 0 0 0 0 0 0
##$CHEMSTR= <none>
##$CNST= (0..63)
1 1 145 1 1 1 1 1 1 1 1 1 1 1 1 1 1 1 1 1 1 10 10 30 40 1 1 1 1 1 1 1 1
1 1 1 1 1 1 1 1 1 1 1 1 1 1 1 1 1 1 1 1 1 1 1 1 1 1 1 1 1 1 1
##$CPDPRG= (0..8)
<> <> <> <> <mlev> <mlev> <mlev> <mlev> <mlev>
##$D= (0..63)
3e-06 2 0 0 0 0 0 0 0 0.06 0 0.03 2e-05 4e-06 0 0 0.0002 0 0 0 0 0 0 0
0 0 0 0 0 0 0 0 0 0 0 0 0 0 0 0 0 0 0 0 0 0 0 0 0 0 0 0 0 0 0 0 0 0 0 0
0 0 0 0
##$DATE= 1732901877
##$DATE_START= 0
##$DE= 6.5
##$DECBNUC= <off>
##$DECIM= 4170.66666666667
##$DECNUC= <off>
##$DECSTAT= 4
##$DIGMOD= 1
##$DIGTYP= 12
##$DR= 23
##$DS= 8
##$DSPFIRM= 0
##$DSPFVS= 20
##$DTYPA= 0
##$EXP= <H1_COSY_HiRes_Night>
##$ExpStatus= 0
##$FCUCHAN= (0..9)
0 2 0 0 0 0 0 0 0 0
##$FILCOR= 0
##$FL1= 90
##$FL2= 90
##$FL3= 90
##$FL4= 90
##$FN_INDIRECT= (0..7)
0 0 0 0 0 0 0 0
##$FOV= 20
##$FQ1LIST= <freqlist>
##$FQ2LIST= <freqlist>
##$FQ3LIST= <freqlist>
##$FQ4LIST= <freqlist>
##$FQ5LIST= <freqlist>
##$FQ6LIST= <freqlist>
##$FQ7LIST= <freqlist>
##$FQ8LIST= <freqlist>
##$FS= (0..7)
83 83 83 83 83 83 83 83
##$FTLPGN= 0
##$FW= 4032000
##$FnILOOP= 0
##$FnMODE= 0
##$FnTYPE= 2
##$GPNAM= (0..31)
<SINE.100> <SINE.100> <SINE.100> <SINE.100> <SINE.100> <SINE.100> <SINE.100>
<SINE.100> <SINE.100> <SINE.100> <SINE.100> <SINE.100> <SINE.100> <SINE.100>
<SINE.100> <SINE.100> <SINE.100> <SINE.100> <SINE.100> <SINE.100> <SINE.100>
<SINE.100> <SINE.100> <SINE.100> <SINE.100> <SINE.100> <SINE.100> <SINE.100>
<SINE.100> <SINE.100> <SINE.100> <SINE.100>
##$GPX= (0..31)
0 0 0 0 0 0 0 0 0 0 0 0 0 0 0 0 0 0 0 0 0 0 0 0 0 0 0 0 0 0 0 0
##$GPY= (0..31)
0 0 0 0 0 0 0 0 0 0 0 0 0 0 0 0 0 0 0 0 0 0 0 0 0 0 0 0 0 0 0 0
##$GPZ= (0..31)
0 65 10 0 0 0 0 0 0 0 0 0 0 0 0 0 0 0 0 0 0 0 0 0 0 0 0 0 0 0 0 0
##$GRPDLY= 67.9881591796875
##$HDDUTY= 20
##$HDRATE= 20
##$HGAIN= (0..3)
0 0 0 0
##$HOLDER= 10
##$HPMOD= (0..32)
0 0 0 0 0 0 0 0 0 0 0 0 0 0 0 0 0 0 0 0 0 0 0 0 0 0 0 0 0 0 0 0 0
##$HPPRGN= 0
##$IN= (0..63)
0.0002086 0.001 0.001 0.001 0.001 0.001 0.001 0.001 0.001 0.001 0.001 0.001
0.001 0.001 0.001 0.001 0.001 0.001 0.001 0.001 0.001 0.001 0.001 0.001
0.001 0.001 0.001 0.001 0.001 0.001 0.001 0.001 0.001 0.001 0.001 0.001
0.001 0.001 0.001 0.001 0.001 0.001 0.001 0.001 0.001 0.001 0.001 0.001
0.001 0.001 0.001 0.001 0.001 0.001 0.001 0.001 0.001 0.001 0.001 0.001
0.001 0.001 0.001 0.001
##$INF= (0..7)
0 208.6 0 0 0 0 0 0
##$INP= (0..63)
0 0 0 0 0 0 0 0 0 0 0 0 0 0 0 0 0 0 0 0 0 0 0 0 0 0 0 0 0 0 0 0 0 0 0 0
0 0 0 0 0 0 0 0 0 0 0 0 0 0 0 0 0 0 0 0 0 0 0 0 0 0 0 0
##$INSTRUM= <spect>
##$INTEGFAC= (0..63)
0 0 0 0 0 0 0 0 0 0 0 0 0 0 0 0 0 0 0 0 0 0 0 0 0 0 0 0 0 0 0 0 0 0 0 0
0 0 0 0 0 0 0 0 0 0 0 0 0 0 0 0 0 0 0 0 0 0 0 0 0 0 0 0
##$L= (0..31)
16 28 1 1 1 28 1 1 1 1 1 1 1 1 1 1 1 1 1 1 1 1 1 1 1 1 1 1 1 1 1 1
##$LFILTER= 300
##$LGAIN= -0
##$LINPSTP= 0
##$LOCKED= yes
##$LOCKFLD= -2717
##$LOCKGN= 128.144897460938
##$LOCKPOW= -26
##$LOCKPPM= 7.15999984741211
##$LOCNUC= <2H>
##$LOCPHAS= 301.4768
##$LOCSHFT= yes
##$LOCSW= 0
##$LTIME= 0.200000002980232
##$MASR= 4200
##$MULEXPNO= (0..15)
0 0 0 0 0 0 0 0 0 0 0 0 0 0 0 0
##$NBL= 1
##$NC= -7
##$NLOGCH= 1
##$NOVFLW= 0
##$NS= 4
##$NUC1= <1H>
##$NUC2= <off>
##$NUC3= <off>
##$NUC4= <off>
##$NUC5= <off>
##$NUC6= <off>
##$NUC7= <off>
##$NUC8= <off>
##$NUCLEUS= <off>
##$NUSLIST= <automatic>
##$NusAMOUNT= 33
##$NusFPNZ= no
##$NusJSP= 0
##$NusSEED= 54321
##$NusSPTYPE= 0
##$NusT2= 1
##$NusTD= 0
##$O1= 2200.38499998054
##$O2= 1064.95767795423
##$O3= 1064.95767795423
##$O4= 1064.95767795423
##$O5= 1064.95767795423
##$O6= 1064.95767795423
##$O7= 1064.95767795423
##$O8= 1064.95767795423
##$OVERFLW= 0
##$P= (0..63)
15 15 30 0 0 19.8 30 60 20000 0 0 80000 80000 1000 0 200000 1000 2500 100000
600 2500 0 0 0 0 270 100000 15 1000 1000 0 0 20000 0 0 0 0 0 0 0 2000 0
0 0 300 0 80000 46600 10000 0 80000 0 0 0 0 0 0 0 0 0 0 0 0 0
##$PACOIL= (0..32)
2 3 1 0 0 0 0 0 0 0 0 0 0 0 0 0 0 0 0 0 0 0 0 0 0 0 0 0 0 0 0 0 0
##$PAPS= 2
##$PARMODE= 1
##$PCPD= (0..9)
100 90 100 100 100 100 100 100 100 100
##$PEXSEL= (0..9)
1 1 1 1 1 1 1 1 1 1
##$PHCOR= (0..31)
0 0 0 0 0 0 0 0 0 0 0 0 0 0 0 0 0 0 0 0 0 0 0 0 0 0 0 0 0 0 0 0
##$PHLIST= <>
##$PH_ref= 0
##$PL= (0..63)
120 -3.5 120 120 120 120 120 120 120 49.04 120 120 120 120 120 120 120
120 -3.5 120 120 120 120 120 120 120 120 120 120 120 120 120 120 120 120
120 120 120 120 120 120 120 120 120 120 120 120 120 120 120 120 120 120
120 120 120 120 120 120 120 120 120 120 120
##$PLSTEP= 0.1
##$PLSTRT= -6
##$PLW= (0..63)
0 10.692 0 0 0 0 0 0 0 9.6228e-05 2.673 0.14235 0 0 0 0 0 0 10.692 0.297
0 0 0 0 0 0 0 0.132 0 2.673 0 0 3.8491e-06 0 0 0 0 0 0 0 0 0 0 0 0 0 0
0 0 0 0 0 0 0 0 0 0 0 0 0 0 0 0 0
##$PLWMAX= (0..7)
100.8 0 0 0 0 0 0 0
##$PQPHASE= 0
##$PQSCALE= 0
##$PR= 1
##$PRECHAN= (0..32)
-1 2 -1 0 1 -1 -1 -1 -1 -1 -1 -1 -1 -1 -1 -1 -1 -1 -1 -1 -1 -1 -1 -1 -1
-1 -1 -1 -1 -1 -1 -1 -1
##$PROBHD= <Z108618_0671 (PA BBO 400S1 BBF-H-D-05 Z)>
##$PROBINPUTS= (0..15)
<19F-109Ag> <1H> <2H> <> <> <> <> <> <> <> <> <> <> <> <> <>
##$PULPROG= <cosygpqf>
##$PW= 0
##$PYNM= <acqu.py>
##$ProjAngle= 0
##$QNP= 1
##$RECCHAN= (0..9)
0 2 0 0 0 0 0 0 0 0
##$RECPH= 0
##$RECPRE= (0..24)
-1 0 -1 -1 -1 -1 -1 -1 -1 -1 -1 -1 -1 -1 -1 -1 -1 -1 -1 -1 -1 -1 -1 -1
-1
##$RECPRFX= (0..32)
-1 -1 -1 -1 -1 -1 -1 -1 -1 -1 -1 -1 -1 -1 -1 -1 -1 -1 -1 -1 -1 -1 -1 -1
-1 -1 -1 -1 -1 -1 -1 -1 -1
##$RG= 128
##$RO= 0
##$RSEL= (0..24)
0 0 2 0 0 0 0 0 0 0 0 0 0 0 0 0 0 0 0 0 0 0 0 0 0
##$SAMPLEID= <>
##$SFO1= 400.072200385
##$SFO2= 400.071064957678
##$SFO3= 400.071064957678
##$SFO4= 400.071064957678
##$SFO5= 400.071064957678
##$SFO6= 400.071064957678
##$SFO7= 400.071064957678
##$SFO8= 400.071064957678
##$SOLVENT= <C6D6>
##$SOLVOLD= <off>
##$SP= (0..63)
1 120 120 120 120 0 120 120 0 0 0 120 0 0 120 0 150 150 120 120.87 118.96
122.27 114.95 150 150 150 150 150 150 120 150 120 120 120 120 120 120 120
120 120 120 120 120 120 120 120 120 120 120 120 120 120 120 120 120 120
120 120 120 120 120 120 120 120
##$SPECTR= 0
##$SPINCNT= 0
##$SPNAM= (0..63)
<gauss> <Gaus1_270.1000> <Gaus1_180r.1000> <> <> <Sinc1.1000> <Squa100.1000>
<> <Squa100.1000> <gauss> <Sinc1.1000> <Sinc1.1000> <gauss> <gauss> <>
<> <gauss> <gauss> <> <Sinc1.1000> <Sinc1.1000> <Sinc1.1000> <Sinc1.1000>
<gauss> <gauss> <gauss> <gauss> <gauss> <gauss> <Crp60,20,20.10> <Bip720,50,20.1>
<> <> <> <Rsnob.1000> <Gaus1_180r.1000> <Gaus1_180r.1000> <> <> <> <Gaus1_180r.1000>
<Squa100.1000> <> <> <> <> <> <> <> <> <> <> <> <> <> <> <> <> <> <> <>
<> <> <>
##$SPOAL= (0..63)
0.5 1 0.5 0.5 0.5 0.5 0.5 0.5 0.5 0.5 0.5 0.5 0.5 0.5 0.5 0.5 0.5 0.5 0.5
1 1 1 1 0.5 0.5 0.5 0.5 0.5 0.5 0.5 0.5 0.5 0.5 0.5 0.5 0.5 0.5 0.5 0.5
0.5 0.5 0.5 0.5 0.5 0.5 0.5 0.5 0.5 0.5 0.5 0.5 0.5 0.5 0.5 0.5 0.5 0.5
0.5 0.5 0.5 0.5 0.5 0.5 0.5
##$SPOFFS= (0..63)
0 0 0 0 0 0 0 0 0 0 0 0 0 0 0 0 0 0 0 0 0 0 0 0 0 0 0 0 0 0 0 0 0 0 0 0
0 0 0 0 0 0 0 0 0 0 0 0 0 0 0 0 0 0 0 0 0 0 0 0 0 0 0 0
##$SPPEX= (0..63)
0 0 0 0 0 0 0 0 0 0 0 0 0 0 0 0 0 0 0 0 0 0 0 0 0 0 0 0 0 0 0 0 0 0 0 0
0 0 0 0 0 0 0 0 0 0 0 0 0 0 0 0 0 0 0 0 0 0 0 0 0 0 0 0
##$SPW= (0..63)
0 1.9971e-05 8.876e-06 0 0 0.0069368 9.6228e-05 0 2.4057e-07 0 0.0069368
0.0069368 0 0 0 0 0 0 0 1.416841e-05 2.202434e-05 1.028381e-05 5.545972e-05
0 0 0 0 0 0 0.091891 1.7107 0 0 0 9.7037e-05 8.876e-06 0.00056806 0 0 0
8.876e-06 2.4057e-07 0 0 0 0 0 0 0 0 0 0 0 0 0 0 0 0 0 0 0 0 0 0
##$SUBNAM= (0..9)
<""> <""> <""> <""> <""> <""> <""> <""> <""> <"">
##$SW= 11.9863275049419
##$SWIBOX= (0..32)
0 0 3 0 0 0 0 0 0 0 0 0 0 0 0 0 0 0 0 0 0 0 0 0 0 0 0 0 0 0 0 0 0
##$SW_h= 4795.39641943734
##$SWfinal= 0
##$SigLockShift= 0
##$TD= 1024
##$TD0= 1
##$TD_INDIRECT= (0..7)
0 512 0 0 0 0 0 0
##$TDav= 1
##$TE= 298.0103
##$TE1= 298.0103
##$TE2= 0
##$TE3= 0
##$TE4= 0
##$TEG= 300
##$TE_MAGNET= 0
##$TE_PIDX= 1
##$TE_RAW= 300
##$TE_STAB= (0..9)
2 2 0 0 0 0 0 0 0 0
##$TOTROT= (0..63)
0 0 0 0 0 0 0 0 0 0 0 0 0 0 0 0 0 0 0 0 0 0 0 0 0 0 0 0 0 0 0 0 0 0 0 0
0 0 0 0 0 0 0 0 0 0 0 0 0 0 0 0 0 0 0 0 0 0 0 0 0 0 0 0
##$TUBE_TYPE= <>
##$USERA1= <user>
##$USERA10= <>
##$USERA2= <user>
##$USERA3= <user>
##$USERA4= <user>
##$USERA5= <user>
##$USERA6= <>
##$USERA7= <>
##$USERA8= <>
##$USERA9= <>
##$UUID= <>
##$V9= 5
##$VALIDCODE= -1
##$VALIST= <valist>
##$VCLIST= <CCCCCCCCCCCCCCC>
##$VDLIST= <DDDDDDDDDDDDDDD>
##$VPLIST= <PPPPPPPPPPPPPPP>
##$VTLIST= <TTTTTTTTTTTTTTT>
##$WAVEMAKER= (0..7)
<> <> <> <> <> <> <> <>
##$WBST= 1024
##$WBSW= (0..7)
4 10 10 10 10 10 10 10
##$XL= 0
##$YL= 0
##$YMAX_a= 1651918
##$YMIN_a= -1567893
##$ZGOPTNS= <>
##$scaledByNS= no
##$scaledByRG= no
##$shimCoilTempK= 300
##$ABSF1= 11.4932
##$ABSF2= -0.4931931
##$ABSG= 5
##$ABSL= 0
##$ALPHA= 0
##$AQORDER= 0
##$ASSFAC= 0
##$ASSFACI= 0
##$ASSFACX= 0
##$ASSWID= 0
##$AUNMP= <proc_2dsym>
##$AXLEFT= 0
##$AXNAME= <F2>
##$AXNUC= <1H>
##$AXRIGHT= 0
##$AXTYPE= 0
##$AXUNIT= <>
##$AZFE= 0.1
##$AZFW= 0.5
##$BCFW= 0
##$BC_mod= 0
##$BYTORDP= 0
##$COROFFS= 0
##$CY= 15
##$DATMOD= 1
##$DC= 0
##$DFILT= <>
##$DTYPP= 0
##$ERETIC= no
##$F1P= 11.493200302124
##$F2P= -0.493193127619147
##$FCOR= 1
##$FTSIZE= 1024
##$FT_mod= 6
##$GAMMA= 0
##$GB= 0
##$INTBC= 1
##$INTSCL= 1
##$ISEN= 128
##$LB= 0
##$LEV0= 35
##$LPBIN= 0
##$MAXI= 10000
##$MC2= 0
##$MEAN= 0
##$ME_mod= 0
##$MI= 0
##$MddCEXP= no
##$MddCT_SP= no
##$MddF180= no
##$MddLAMBDA= 0
##$MddMEMORY= 0
##$MddMERGE= 0
##$MddNCOMP= 0
##$MddNITER= 0
##$MddNOISE= 0
##$MddPHASE= 0
##$MddSEED= 0
##$MddSRSIZE= 0.15
##$Mdd_CsALG= 1
##$Mdd_CsLAMBDA= 1
##$Mdd_CsNITER= 200
##$Mdd_CsNORM= 0
##$Mdd_CsVE= no
##$Mdd_CsZF= 0
##$Mdd_LrLAMBDA= 0
##$Mdd_LrNITER= 0
##$Mdd_LrRANK= 0
##$Mdd_LrZF= 0
##$Mdd_mod= 1
##$NCOEF= 0
##$NC_proc= 0
##$NLEV= 6
##$NOISF1= 0
##$NOISF2= 0
##$NSP= 0
##$NTH_PI= 0
##$NZP= 0
##$OFFSET= 11.4932
##$PC= 1.4
##$PHC0= 0
##$PHC1= 0
##$PH_mod= 0
##$PKNL= yes
##$PPARMOD= 1
##$PPDIAG= 0
##$PPIPTYP= 0
##$PPMPNUM= 2147483647
##$PPRESOL= 1
##$PSCAL= 0
##$PSIGN= 0
##$PYNMP= <proc.py>
##$RDF1= 0
##$RDF2= 0
##$RDFWHM= 0
##$RDINT= 0
##$RDPOS= 0
##$REVERSE= no
##$SF= 400.07
##$SI= 1024
##$SIGF1= 11.4932
##$SIGF2= -0.4931931
##$SINO= 16
##$SIOLD= 1024
##$SPECTYP= <>
##$SREF_mod= 1
##$SREGLST= <1H.DMSO>
##$SSB= 0
##$STSI= 1024
##$STSR= 0
##$SW_p= 4795.39641943735
##$SYMM= 1
##$S_DEV= 454
##$TDeff= 1024
##$TDoff= 0
##$TI= <Ref JH1-04
Group Quayle_P
2: S2RA
H1_COSY_HiRes_Night DMSO /mnt/nmrdata>
##$TILT= no
##$TM1= 0
##$TM2= 0
##$TOPLEV= 100
##$USERP1= <user>
##$USERP10= <>
##$USERP2= <user>
##$USERP3= <user>
##$USERP4= <user>
##$USERP5= <user>
##$USERP6= <>
##$USERP7= <>
##$USERP8= <>
##$USERP9= <>
##$WDW= 4
##$XDIM= 128
##$YMAX_p= 414120237
##$YMIN_p= 0
##$CURPLOT= <Auto HP LaserJet 4050 N PS on NMRSERV1>
##$CURPRIN= <$HP LaserJet 4250 PCL 6>
##$DFORMAT= <normdp>
##$LAYOUT= <+/2D_hom.xwp>
##$LFORMAT= <normlp>
##$PFORMAT= <normpl>
$$ Bruker specific parameters for F1
$$ ---------------------------------
##$ACQT0= 0
##$BF1= 400.07
##$FnILOOP= 0
##$FnMODE= 1
##$NUC1= <1H>
##$NusJSP= 0
##$NusT2= 1
##$NusTD= 512
##$O1= 2200.385
##$ProjAngle= 0
##$SFO1= 400.072200385
##$SW= 11.9824967834638
##$SW_h= 4793.86385426654
##$TD= 169
##$ABSF1= 11.49128
##$ABSF2= -0.4912831
##$ABSG= 5
##$ABSL= 0
##$ALPHA= 0
##$AQORDER= 0
##$ASSFAC= 0
##$ASSFACI= 0
##$ASSFACX= 0
##$ASSWID= 0
##$AUNMP= <>
##$AXLEFT= 0
##$AXNAME= <F1>
##$AXNUC= <1H>
##$AXRIGHT= 0
##$AXTYPE= 0
##$AXUNIT= <>
##$AZFE= 0.1
##$AZFW= 0.5
##$BCFW= 0
##$BC_mod= 0
##$BYTORDP= 0
##$COROFFS= 0
##$CY= 15
##$DATMOD= 1
##$DC= 0
##$DFILT= <>
##$DTYPP= 0
##$ERETIC= no
##$F1P= 11.4912796020508
##$F2P= -0.49128308514531
##$FCOR= 0.5
##$FTSIZE= 1024
##$FT_mod= 6
##$GAMMA= 0
##$GB= 0
##$INTBC= 1
##$INTSCL= 1
##$ISEN= 128
##$LB= 0
##$LEV0= 0
##$LPBIN= 1024
##$MAXI= 10000
##$MC2= 0
##$MEAN= 0
##$ME_mod= 2
##$MI= 1
##$MddCEXP= no
##$MddCT_SP= no
##$MddF180= no
##$MddLAMBDA= 0
##$MddMEMORY= 0
##$MddMERGE= 0
##$MddNCOMP= 0
##$MddNITER= 0
##$MddNOISE= 0
##$MddPHASE= 0
##$MddSEED= 0
##$MddSRSIZE= 0
##$Mdd_CsALG= 0
##$Mdd_CsLAMBDA= 0
##$Mdd_CsNITER= 0
##$Mdd_CsNORM= 0
##$Mdd_CsVE= yes
##$Mdd_CsZF= 0
##$Mdd_LrLAMBDA= 0
##$Mdd_LrNITER= 0
##$Mdd_LrRANK= 0
##$Mdd_LrZF= 0
##$Mdd_mod= 0
##$NCOEF= 32
##$NC_proc= 0
##$NLEV= 6
##$NOISF1= 0
##$NOISF2= 0
##$NSP= 0
##$NTH_PI= 0
##$NZP= 0
##$OFFSET= 11.49128
##$PC= 4
##$PHC0= 0
##$PHC1= 0
##$PH_mod= 2
##$PKNL= no
##$PPARMOD= 1
##$PPDIAG= 0
##$PPIPTYP= 0
##$PPMPNUM= 2147483647
##$PPRESOL= 1
##$PSCAL= 1
##$PSIGN= 0
##$PYNMP= <proc.py>
##$RDF1= 0
##$RDF2= 0
##$RDFWHM= 0
##$RDINT= 0
##$RDPOS= 0
##$REVERSE= no
##$SF= 400.07
##$SI= 1024
##$SIGF1= 11.49128
##$SIGF2= -0.4912831
##$SINO= 16
##$SIOLD= 1024
##$SPECTYP= <>
##$SREF_mod= 1
##$SREGLST= <1H.MeOD>
##$SSB= 0
##$STSI= 1024
##$STSR= 0
##$SW_p= 4793.86385426654
##$SYMM= 1
##$S_DEV= 454
##$TDeff= 1024
##$TDoff= 0
##$TI= <>
##$TILT= no
##$TM1= 0
##$TM2= 0
##$TOPLEV= 0
##$USERP1= <user>
##$USERP10= <>
##$USERP2= <user>
##$USERP3= <user>
##$USERP4= <user>
##$USERP5= <user>
##$USERP6= <>
##$USERP7= <>
##$USERP8= <>
##$USERP9= <>
##$WDW= 4
##$XDIM= 128
##$YMAX_p= 414120237
##$YMIN_p= 0
$$ End of Bruker specific parameters
$$ ---------------------------------
##NTUPLES= nD NMR SPECTRUM
##VAR_NAME=  FREQUENCY1,    FREQUENCY2,      SPECTRUM
##SYMBOL=    F1,            F2,              Y
##.NUCLEUS=  1H,            1H
##VAR_TYPE=  INDEPENDENT,   INDEPENDENT,     DEPENDENT
##VAR_FORM=  AFFN,          AFFN,            ASDF
##VAR_DIM=   1024,          1024,            1024
##UNITS=     HZ,            HZ,              ARBITRARY UNITS
##FACTOR=    4.68150767018217, 4.68300431585679, 1
##FIRST=     4597.31623039246, 4790.71341512149, -179
##LAST=      -191.866116203902, 0,           -387
##MIN=       -191.866116203902, 0,           0
##MAX=       4597.31623039246, 4790.71341512149, 414120237
##PAGE= F1=4597.316230392
##FIRST=     4597.31623039246, 4790.71341512149, -179
##DATA TABLE= (F2++(Y..Y)), PROFILE
1023a79N9B1e5j28b9j48d3j37e8m9J8lKkk2J3Jo4P9a5I5a82j3f1B0c60N2M6a25
993A55J01p8E6h4j29D2J67k2f7Lj42C8K64A15gj87O3nj11j9L8R6J3K6Ll1J2j04
965b13O1m2q7l8R0j52J13g6q6O2n6j23L7d7j5J2k8qq5C3A0a45N4FP2c8k10O3j3
936a98N0J2do6l8a3@b6q2k26M0J11g2j3b9j77k11J90D4d9j02RN9j02q8P2m2A77
907C80r3r9l1B5a18j87qO9O6M8j8j18k23K34L8n9J33n2N1d3a7j6p6n0l2M1l8o4
879b52J17a1j59O8qr1j53A2a19MH8jQ4E0J40P4l1H3f3Jj09j13a8j58j23N0J17
852a32b4C6K4J9M3@b21%m3p6R8h8A5J35C2J31C5f8pj37QQm2O3P4E1L8l8J21P7
822B49b2F9nf1k42q8i1j57A19a27l4k66J01dE22A80G7K92H6e6k22pR0a6j17A28
795B62D3b39j9K9O6b5l2j20j26Jr5M3R0J6f8r8o3i0C13G0a67j29K7g2J9q9m8O8
767a22b9j2J4r9k0j01N3E11j54C2kJ00n5a61k20J45f9K0m0n6A69K89j23C3j0i0
740f0l4n3m3R3n2j11j2j56J99P5o1nnP5jJ8j8k2je2j37p5o0a55p5L8J7a7j79l2
710b28L3N9Qr0j60J19J11e1j28M9p3e6k12j55J13q9a92A53B3K2g3k71J52M0j57
685c09k22K13J45P8fj02k88c0C97j10a10k08P8d8B78K33c19C5b97c2F4j6Jk4a3
659a44j14J26GM27L97J83k44C15A28k5a771a22o4KK4Rj08p0K3L2j14m20L05A6
634b33k44H9ImJ9a220a36j18o2L1f7C45L51mC28g5j41i2j098j684J301M42c55
610a27j10J5M5J3b0o7fD25A54d2A7J09R6J56K56f1B5d68K21J13j04G5e1q6j70
585c07l451k343j110j789k020d016b30poe4A85J33A39h9l35Q5M0k22a33H7b92
563c72k8l54Ca54CMd356j85j455m51K026j657d09J81k429k880J594j64J471d48
542F0g99c83B04o8b7l0p6rJ6f3k49E6P9E6a18k3d8ik23k4J04Ga58e1k92J03o8
515c08N2a09L4j54hk4a4A25L5k5B4K0K11QA01a82j41L7J39oq8j05lk24J55Q7M0
488b91K3p2q7a46C9J16b2l62R4p3R3P2A02K79Q6j88j22LC4a5j5j40j14K2B9J68
462A97R5J63rA82h5HK15a21k3C5K31%E1L65n8j69c4l95q1D6b59L9m4g4A3a1j01
435a12K2k8G2O8f5m4p7ojj36O4r7o6Q4j33J67OD1c6n9m9n9l6O8m9NB5J35e7k45
405c02j09J22l1j60Q2l0R3J6e7QD9a79pj27n2g6LA71J20A30A1a49j52k22K32M1
379b50a01l8G1f6A0J55k8il93j87G1mb0j88m0k13J81j29j2J17J23j90a30A45K39
354C84j79De8C8g38b85p0k65K52n33l5j86k38j370J029P01K76L40b6r6j52n0Q2
331b42a20j2n347a80j2L0j2O2k1157g879c07N8Q5m0j44K7L2r7l3J07N1J01k897
308c057J168j3b63Q1e2C1f33K88a70d3k7j1J4k9p2o3L9L6b9j39k39Q1e3l8q3K0
282a54d6A21J09B5aj02a4C38H2e4l33a88j13l7K5h4q6kn1O2L8r9qN3P9M2o5j11
254b32j4k05J66B2lb29l0a24A25f5q8j4L0o4m6m9r8N5l6R1e1A08b3j58j64j54
228d99a62f3j3AN6J45Q0J8j47B5b75c4A91j0D3b30m5K8A19A1c03mf0j03L9k4O5
201h3A2b0A09Q2n8D6A2a455A51A7a39n5b6C8a84pj7g2l450J440N72B12h86b6B86
175f82j3f4j82k28K2n4L0J3Q7J66I0Ab0j10p9A7J54J8n2D0P1O8c02i0r2n9l3h0
146a22L7j9o2p0Nj25N0P5O1o5k22a13K8c0B33P2b03Lj8J01Dg2r6r6a23B00J54
119C54a81K3j86o8J95f6A20K07J14r7j48B5e7m4E9a37m8p2n2a30k02J7a54a6n0
94f6A90G4a61o4c4B4a42k59j88J53a50K8N5E32k49N8J23q3A77g5l3j43h2q2A67
68D71M2A74d03j09J91J33k0N4q5K7Nn1j8o5n6J38A45J21A15b78j05N5J01J4j29
43c42a16j3N2c3A15K37M3n0b40a5Ea48e8j41q6j29J01k3J37r4P4O8P3c0hI1L88
16D79B28a01j26q7k@C98O93m79k37A0d40J01r9Q2J35
0b21
##PAGE= F1=4592.634722722
##FIRST=     4597.31623039246, 4790.71341512149, -120
##DATA TABLE= (F2++(Y..Y)), PROFILE
1023a20B5e7j6p3N5jb0j82O4o7P8L0K5K9Ol1q9l4R5l2dl06J09c2D9b39n1jR5d
992A08k6A5a11r0A22J02m2RJ19a37o1A00l3d6r6M9k8j35l0K4N3OK1M3J5K4j31
965b31L3O1r6p7P7j25Q6g7p3j6M6j22q9f7lK0Ogr6A81J9c02e3a2k00M5j46O2P5
936a76Q4GJ90A9QO9k2k8Jb17l6MR2J6O2j11j76Q1J40G0k9a5l8r3p3M4L4E6J86
907B42o5E9ki8loj07J3P2j0l5j03j74J14a33cq3K8q4N9L4p7j28M7J00n1j5Q5A36
877A52E1a20k1p7k43gj00k8D6h6m2D0J01J71M8A75f0Oj03j43J23j7j30M6M3Q4
851a51f0b3l7o4k9n8m4K0K2A33L9L36O0j16j45A0d9k0j66M2l0OM2j8P2Pq8g0a
821a99M3j5M5k13j07a95B14K34A01b08k00Q7J02B7b53d8C27A32a36p1n6O0G1a37
796A3K6d9k63J32h2L4j7k5n1j97Q6o0K4j6IQ3f6k5B34A4a50p7q5J34o9J17J2J3
768a05c4E6L4B7a49o2p2J2a04L8j12M4F0k6f6q4k0f1b4C4M8J99K38j61A17i6r2
741a88r0kk4J11A5a39m1j2k13J11g9p0q9O9C4A0g2m7rk0j57R6R8d2n1n0Rr5N3
712a76j32E7e9l5j39P8f3B8a89B2A0J5J79e3j13k37J51k6@E79A22K75j73a62O9
687i3k3k69j23K52i5L4F4L5c12a33B35H7b40q7P8c4A77P6j00a69j02A5J17j9k0
662I3j4C8a25q9f8G2L65K58L9k64A53o9C3g71d1q4q8K1Q4k7k05J44A1d87l97P1
636h13c56J20l72a34e8b8B2f90b03o32c71J6a13B77K70n1A68a50j01k46a44k397
614b541O28M43b92p4P0R7N4k9g5k5D35k05k7J91l9N9J72r4J09p3B03b35M6N5L5
589i9D08A32b6k15m076l336J95q77q00E3c1j11j872b18M1O1m9jn4a06j83J7A94
565B41mr5h9o26a57k28i9p9l24k075l902k023J743P34a656a80k483k337J516r32
545d416J438a225a04m79A0J46m4b0j01l2n3j2j27j68a21G8a9j72lQ9L7j28m9M3
521b02Q4j04a09k11J8a12o0l2M4q2Q6E2e9j20h4j07n2Q0aC0a6j43p5J07C7J67
495B04d8o8K6k22i3A9a19j46m4j09a31A34J24q9b72q4o6a40N7B23L2L36j92j50
471B49ro7E9b0gj64j97hB03J96J83k62j07Hb23d2k39N6I4J09m8m3nD9d4j10e6
443FM32a62n6K6A23K25oE5a18l1E5R3f3qq5q1j31pJ8m3l2J03k1J29p7a5j23lO9
414g2o4L0k1j42P0R6I1L9a00k94J58Q5k40j4N3J30P2CO1a12r0lj74K6A8K5d5m7
386i2dj69j52L2o3Q6O0g0k15c5q3j25a02d5l2l88j19K12h9r1p0l4j57J33j43e4
359E7d7p5q2B13K17j96cr2L1m45q2k7r1J45l46J77a52kj411N19d56b01i4l1j8
334a43j00k0P3c2o417j2837j312c058g8K8j7382M435d658b22K2Ko8j06j2lo7n
312d59J18J67D7b374N36N40b38i5bq0l63A52J25j31ip8j1k6l8j6j63a05J7l9k20
287c47P6a09p1L2f4B3J44J66k4A16d9J8C08o6a96k46K06k7m0l8a53j01K7J2d0
261Ba72k0pP9j2l1k8l0j02J16@A28P0l2o0K12I7i1b1F4J5f6j92j30R0k2a24B3
232A91J80A34a32l06K11B1b9ak3A43M7l9D1c5p4j76A79JH1b18o5a20D0J97d61
206c71e1j09k0P0b0H8a0FJ26P6K2k4a497C00b904k864J239j12O23a01A92q2c92
182c406a070D2c2k48Q8B75e24j59b79l6j82K0J34j69L0J34a64e0D8K2g6o4j2m9
158b01Oh1J0A4M6c57J73G4a38j25a01o7d8j7k7n3Jj22R5Po9l6k20b20j42J72D6
130i3q5oM4n0h5p4J3j19O1F3K8b54a05l52J82oe5A48K6J07J95A96H5J68j0P2G7
102G4e3k31J09j68J12O3D3a40a3B8A1J0Q1hk30k96J87R3a08D7K1L58k8A46e2k
76e4C7J3J13n1Ha48O9eB10q4c24p8a82c7o7H4b44Q3l9j4j7j7q3a53C8Ii3k82L5
47c40Q7a02p2o9a18n3A22dA1J24K2p0b55h1lj38J4mj5k25o8K54a16j02k7O3N5
20a27lo7O2A03J41g9j86o6N0h6B45O69m37k25bj73J6n0M0M3
0a26
##PAGE= F1=4587.953215052
##FIRST=     4597.31623039246, 4790.71341512149, 21
##DATA TABLE= (F2++(Y..Y)), PROFILE
1023B1e7A7a28j2K2D2a80j33PL8Q3cB15K5l3b5j71i5C3b02qN7j4O1A4a92MPK4
994a57A8N1j5M1i7o8E7L6IK0J33C5a19j9j61e5l8l1o7j22R1k5J7J9R2I5J15Ne9
964a84P7o5j31L8r0J40O7p1L5O8l9k18R4A5ij26m7M3aj50j7O9M2j73J10l9e4H1
935A07J55A00d6J8C4d1n2m4j00l5L0R9j2L1j32j04a70d9j53d3G2Ka03k6k5P0B08
907H0b9n6c8j10c3o2j23Me1cj13j55j55O2G3%d5F3a13p5c5o3j33L3K6j4l6d0A15
877A94o8d0p2o4l11a14F9f1j74j10j7a30A54m6N0j2a4G7Eb21R0k1j80N3k3a21
850B0a5ck8q5r7o6J32F0M47j99K98Po2k8D0Aa48r0O8K7n0k1j8O6J7j16J04b8q8
821a16j2f0j38j10j25P9D01P5j10a48k48R1P9P6M5EK41K30I5e6K0j44O9m2k6j7
795a96j4mQ0e3rn6ml4j12J06o1J3o1B64j13a70K4B06d4k32J1o1a50k05R7E4J86
768B40j16N5R8m4A1a22j63M8J08mL5A10a64L2L8j6k7M6qkL2j14c1k9fH8C7a26
739a33lb3@bo1k7j94a28j56j37K04d6A08i0A4a08oj82k10K44R9O7j3o7m1j30J32
712b15f1Mr1j27L9b7C83K94e7j65B31b6A39a11j15j48J61a06H6M91j41j8A8c24
687c34P8J1a7A26o1A4O9rb18q5J34h2j18q9J6j71D1J6h9k09h3A87P0j08A3g2l8
660a10q9o2N8n081g6Ja1CiD1me1r5PKqK9M0l38K04J4k21m34N7L06b16m86a15J4
631a01m0n20j0b80o36d32Ma87F6J46RI9c6j17j15q46o02n83Q86d22J15N6Q4a2
606eA8b00e8B35j04L68o2r7K50k22A58G8b6p9G3J51b21E94B41Bf16n110k724J138
582g312j422c275A83c0j29M3l22I1nc51J28a02K4k25e3%F0J18P3j25e43b34o6
559c00m26f7G1a965l309l183j562L012c310a34e6j614O92k356O59a122A56c18
540F2a21N8k4k62J70m1kj02K7h7j07B6i4J1q7O0L0j35l8P5o7a16j34J06A16h6
513c03J0a04A8fk55K6k2J24o9Pp0j44J55a27O2A84J87J05k21O5L4B2a04r9f0j34
487a94m2j25a25@A62o2a54j74J8Q9N4A50K11Q0j87E9J2j1A1M4a6j48j60J07J02
462a15B33q3c8o6kj50E7b86J04I0P7a0k18l4K1L0M6d8A64K61h3j04L9I3K02r6
436A99h1q4RO6Kl0jn8j80a36j6r6j13k1R0f0C5a73K3m1q1k9J40F3c5j46f0oE2
406B35E2c38a30Rj53PJ29L4hdrD5a68ql7m8i4A36a62r1PB0c42R8m1a41C2od24
376c09g8k01a04r4e9m43nl7g8Nj24j9n4j7q5i9J5K0H0a83A7g6j88KJ5K7k43n08
[...]
179g24I7L9E7B3e7j45i0B03c70B23c19a48B32L59A95i7K4j60K6A05B3J52Mb13
154b46j81d7ck21q5K9L0q4J51j33A13nn3d7l9D75J05m7a69m5k79J98l3P4M7K2
128a85m9q3J08o9K4Pn4Q4oj05OK4j0p9j3J04O0Q4f5C57J28B14l4a57j0Ab33k33
100d66N1M5qQ7a10b7A7b16l1b7j77Q7M3j21m4M4o6r9l9OJ13O3p1R3h9c2m22a73
71a17k53L0J5a41d8A9dA49K03g0j79L8j0H5J47E1a15j4A0c34a38k4g1j6j66Q8
45a65n8P2n2j80E1bk12a06C79K90k91j08F3c0r5j24K4a10@A0a39q8l8K4o1a40
18G7J83qH6b00l1d1D4c8k59i9L2iA8a4j36J7E1J22
0A73
##PAGE= F1=-163.7770701829
##FIRST=     4597.31623039246, 4790.71341512149, 375
##DATA TABLE= (F2++(Y..Y)), PROFILE
1023C75j23d4j21o1N5l6j31L7K9P6C3Q5J3k3a56j45a07A72b24j39k2pJ33a09c
997a66j17j96a76A37j2K6a79k8j06g8l2%M7m7k3j19b2k7j05J5p8J0gq2j71ja26
969a90j1Q4H2Qi1n8f2k61A8J7A1a22q2q1M3J1j18J18g6C24J20G7R1M1g5r6l7j18
941c26j19j2J72h5r6jPpq9JJ16l6K3K0j71J2mgl07q4a58k2m9k2lq7K1K9N3k5i2
909F2K0R8m2O60j46B82A22J98e9b2F56j7A96a43k04a71p3j8Q7d5p0r8O1B58a06
883i8j2j03Mk5k9a01E6i3j13Om3k7M8j23J06C8R6K1o5L85M8pK09C44l8bE3J09
855A62L78k07E8a22QLk49J45j48J67K7O4hj07A06m3e7k37j61J44Q8J6N5r1l1J7
829b57j1P0k8q7j17J09N4m4D00L94C02I0a92R5lr5K0d9o9j63J01j21J14P0A49
803b4k00l2Q8L9m2r4j43J65K7p0N5p6K0M8O9c9F0J85J77K8k04b05P7m6h6A4P2
776H6i9j07j48M5P0h5Kj54K0l1O0R2E5J7a72N6q9Mo6J12kj12a2p8F9a8gj62q3
747b52m9NO6N1l2q5p0O5kp3j06Q5J33L8J9r8N6p4Q6N4lj08D8i9r4L5L1H4K76j75
717A85b8j84j1L6K2m8j77a86Q6j75a04l8k75Ja86j09M9e8K1n9M5A69L99k10a06
691b45A5a39A3M39K15B49M8l4H4b18k01J63P9K2j4j71J30k04O6a11j15m27k55
668i08O5D7Q6a4j446O45k007a132j444n506j664M649A36J09e068k648b703M91
650b212c81f1j70h4A11M11L1B13a01m1m35n3J41G8O86J3iA91g73b61j173O04J39
627f91n07K07n906l47L065j114C36I8A7qJ38b400N37d3r05k87d13B88c1C92i3
605A39P1r7C9d44a21m5QK4l9B46Aa13l91J80l0a63j52p36j818j541r45Q53m218
582h720l650m64o09K246M809a426b0C1Q1@b67J25l08h1k74L8F7J84D8L56G2a00
559b00r59a65q2J8N5M4M6Ok4k8p9o9J11L%c9l19m2O0J66m1a7@i1j62J7f6k2k98
530c86i6k41j08J81B55a28n5B42K78A43b05j51r3n4a33A17A3J56j9b0l4l1J4j7
506h8j9j40Q5o8N8g3L1r9r3j77L1a78g2k0lj2k5J7m5r8j03k9N7J47Q2r2M8e9n5
477a14n8ir8j02e0G0a63K6pN1B25G2d2l52J18J08L8Ig5l0j49l6g2%k2m4j97o4
449c99a81P3A54K01l3K2A16A0K4a21Lm6P7B17r0f5k01k6N0k4P8r1m2J33A9N3N8
422A30RF6C2a65K1e1A74M9H7g6l44j9O8J05l8q3L7O8O4k4JL7k2J9N7d9l7d3K0
393b3k56J4J12m2B35p1b1p8K0l7K5q6B3c61a55k10OJ71k3JL9M6l0j95A70a79m33
366f12a06E0d45a93Q4A99K61j4B10j4J83J6b43k15j99n18P2e35j11r4c51k40O2
343e29gl82d3C95cj45m0j957a54k686a06l05q47B27d890r175O100A341O51l19
323A673E71B20l2e008B90L53J06B66i70n76O79Q4j56A37i95r49N36J18N43J00
303f47n30e64o16M59Q1A4b77A50b18P7E9L15a55l46n1J42O6P7L1l8M5p4q4J7O0
278c10J29I4A1b44r2g8j42I0L93k19F6J47L9p6h5C9J64J78j09A13N6Q5h7n3F5
252h3j27j62J64G8N8a36m8k12J7L7Q7j99P1Mk2M9nk2R1J16C6f6j44m5L2P8k0C1
223E0og1j03o9J20F5K21L3r8c02K4J6L3k13a10k2e0C05D7f79P8a53ko6j25Q9k78
196e35a93o37j677k93m56k603l195l614p356M973f1j97J26j758e96K31k74j3a88
176a24j8ln3k8j96k09b28p3L9A79O67m10D8a31b0E9O71l32D7J7K70c49J27A04
151a54o4p8N0n7l5J59j58a4F6a7C6K5P22K72j84b5H8B2i0l22P3i8l2j80l5a70
124a04j5j0j21J6G3a63m5J5k4r9k3J08j00d0E0L10O8A10Na68k7O0j16r2OL8j2
97c11P2J05N9b6m9j51c6k29f4I4f0o9L4j69n7n3O0M9p2l3J42g0k5l66J42a50r0
70b40j14o1a82O8L0I5K66J24H4b09o3Md5A77a04q4go4l39a82e7A19Ha46j07Ri9
42a43k80J54a2D1a90B56M05j50A63B5pf0j34o6a28M5l9o0k1q1%k0R9i4A6ma52
14b16j8O5O2j8j75C5iB7fp7Rj26O8A08
##PAGE= F1=-168.4585778531
##FIRST=     4597.31623039246, 4790.71341512149, 10
##DATA TABLE= (F2++(Y..Y)), PROFILE
1023A0bj1p9j87Q6P8Nj69m2A1Q8K18a79A44J17A22@e0k21p9nl3J69a3k1j66N5
996a45k29F2L48M5jI4b21j28R5a15rM9l4k2j82M6J3ma18A08K81N7g7k09PN9m7
969b67P9i4M0q8j20l9Q2j56a10K9j88g1Bi3B3e0j58P9B0a68A8a2Ba22j35f4J5
942d9D5M6C3a03l1J9A29D9b03mJ01C24A07g6L0j95k5J4f4k06k7C7L1a37p9Ll1
915b44n4MJ08m4O2c0E0a2j8H36D14A59J08n2a16H5R35D05c15I5g1Da92j8e8j31
889a89Ca04C2J63g9F5a75q5L0j8k6a10b9j70l3Ia03d4j02m5K4k16C9e6o7B98J67
862D65K9J57l17D3a90O7A70L88p8B40d6k0j00j55J02jLQ8K8b3j15D2f2j33Ni3
835i3m4n6K2k5k1n6J1P0j5j28m5O5M0L2A8P4b37e7p1a9j32q8j27g4j10j22j3J18
807b01p1Q8M1j00j3R7J3or1n3M9a04pj56@B19H5a61PM2F5K59J41R7j77a15k4j05
779b44j9r0a76ij36j62j0a27e7k07n1J34J0K1f8C5a12K9b1j5j64k1a04j24j30
754c58M8c9A43F1ej55p0n1k8NL4K1j8n4Q2nJ0q4CL67Q0C3b40m3K0L3N5o4f9Ro3
723a23J2J0J9C1P9a01n9j03g2Ab05l8o6P4N3M5j07J19r6M0L0k63J46d5fj74L9
696a41A45M74A26a73d2B03a42a6F1J19J41J22k0A03c32m2a64A05l0c4k58C4d06
672c06e9j57l91o29c7J4r90c3j79n4k262c29j020m894j233b248a63a7A92a811
651b604A59A4d39G6g8j65A7J50F7a28J8m68j20N5K27b00B38b30A98h14j70l09
629a293N8k86Pd1m772o787o475o7L711a41q0K2o44k368J320A8g67l3A08N04j20
608D92Ha82N9Rkn50j8J50K57a14e6hD31M01B64c22J8o4J45k61l92k086j363j086
584e411k96l928m636r38L27M341N195a454A70J65n6c52J05o4a49j2k80o8K36c8
563b44d4Qk86p6j58a34n9M8b8I8P1n7e8j27k7k970a031k03b2p2k14j55A8J56p6
538I8J36d6A37a80M3A24h5l02a69Q2j47k54B93a08L0A26J06E4c85K5n0J40J32
515a38A84L9B4J0L6a7j00M6E1L8a69H2l5Q8O7R1I6a47k33P5f2B37b6m9j31g7B32
487a35j08j34mo7J79a12j0k2l8Nl6K8rJM6ma1A0i1q6A46K81d2l15P2J20J8N2d4
457e7j15k29D8K0b2m9k39p1i4J6b9C31j41I3a29M1r5j58N9k0j4A01D0h0j78mM9
430b13RB3b21K6m1L8K0A03J56a37Ig9Mo0J3m4o5Rj75M9J18a05j08j80pQ6P3m1
402b82P7j5K4k5O4ek0m7J5m5o0o3cD9R2D2a05l9n5rQ1A96c19P0j33Oc8a9p0n5
372a44A01a26k19D73f1C9K46R1a50k04c0j1p0o1n0P9J0K1N2l73j86n97J56B50
347G2g92b71k82n40K24m40c89B93B0b5Gb586a19k992e28o200N34c073q064j0311
327b1448j2618a0014B402m40H52l48J5g111H65J34j16B71b28Jm60P4n48fp13j395
307b114Q37K66J99K6m70e14n70d83b36b3j41A19C0a52P0E9d31p3m7a64j9p9J10
284a52nj2M1Pb8j01a3F00B77p3o7k2a21A45M2E3a38l7N7c6p7B57A08n1d5a9A49
256F2a05j08J3Qn0j6J5R5Pj12n7p6L7oJ02a01%m0j20Oj05L1M5j13J71nm4LN0P4
226a48e8r4j6l7a01k7KA15L65J27J55B94b36L0Rj02q2i5j22j09ja09o11J20M5
201e55G6N0A1f0k04j08E4a462o69j040l013n862o020o548O583B82L18H7a849h9
180a32k35q14c61J48j4P7g5E6a2k20rA02c04M0H23k53B04a4F5K91K56j90A60F8
155C27a37H0K21b6j89j2C6c51j3J49j09A12d7m9OH7K88J17j08A69go9j10l38J15
130d09a95M1j67K6a15m3K1e9j54k2J10M8j16P8j47l8n4K5N6J26J2E3L6a27a8j15
104a33k5q5M4r2qN2j6M5O9M7e1B9a30j0j82M7f9m0k38M6m06J40K73k2J20n2o1
77c09J04F5J53d35J25i9r2j80l6J74A1L56p2l1J49k06g0k14O6g2J2l4n3bk6l17
51c45a63O0A20Ib27m9LJ30f5k85m0a25H3g0C54K48k23D5a04Pn8j39o8J54M3m3
25b08j04k3P7O7j41J12R0f2b6k31a07o6j34R1L9OL0A8fB11j00e0m8j4N3
0e9
##PAGE= F1=-173.1400855232
##FIRST=     4597.31623039246, 4790.71341512149, -440
##DATA TABLE= (F2++(Y..Y)), PROFILE
1023d40a75A6a11j42L8c8k7j66OA16a53J9NF6K98D3b34M2j8J0N6r2jL7g9j21k
996b02Q2C61J75J45k24B01b04k10L9J15J05K3q9o1r7pJ12K8O7E4L72R4ek79L4
971b50j8p8P4e1b5q4j50l1ml6a27j03%a12E4J55J26K4F8a29j34J02M7j16a03n3
945a56j24I8M48R6L4m1ij47A39K19H2b04M9f3B38M3D8Fa17L2j33J6j56J41C11
919E20A22b02rrNJ4O8j38L7a03j4A01e0C47l0b2F9a00j31D3J78A7d04B18e3C6
892a80j2R5n1d1j10o8RB28l7C2a42o1m7l4b4@H4J80n1i9L4A56C2i1Kj15Ln1h6
862C7O9L1A2g3j30oA29K42NA57a43d6n4o4f1j8j8L2K6o3F4c4gE9a49j08f1q0l9
833a80P3l7m1n6J0O0Nk30K7N8O1K1a11A48c5j23m5i1j80l3j8a15j38q8n4J16a00
805A71L2Ea47fj48O9k32O0K7O7K3j39b8A99A4b70L3J5d3j70A03K34P4f7I1a43
778b06j10j9j0J4m1J8a65J3r1q6Q4K1N0r1J7mR2C5K7b73J3J6M0j69j6K8K1K4J2
749c04P5Q6nq1q8joM6LL8k0a15j52D3L56O2a54j22l7LQP8PA83p7A9a7r3l5C6d9
717b23k2JQ6o4j19J42j36N2J15Qj44i2j14R9A10a19k50M2J21R2OQC9a57B5N0j
690G4j8c4j26JC1J4L3b36k67J00a01l1e6m7l35k1Q7J3a60A29a10o59a61g3H9K34
664C23mJ05b128I1b0n607j946j454C7g0o1K5l104A65K09K65b00G8e47a71j23Q4
642b10j10M7j15l55R3K55Q4a06j43J18p28n3c28n72j374L1a11j1k371q652d3C5
619b0l7H9B0b950R22a94l84a1A33K03jF5a32k5ol1o2n40K27b30R3pj18e3C42M7
593C89b71q5j03N0P4q42j825o02j312j298l840m949o20K536M058d262a304N89
575g15b95C34d05a63J3l3o1k61j23K55o8m8b15N7bl60a14A8M2Q2b918P74C46J7
551C63H3a48j488j495L91M91N14e26O6N0G0K40R1D8e2Mj42P1fj22Nn3j37Q7k9
526b55a25j20R5A35N2b31j12m3M5O6o6A34J68a19j29j35p5a38DJ00O6j9L63j18
502C96j67J0J81I5b80J4N9BK61d1j97j07A79K68j23b64j86J9J32a07j1A38o1a46
477a24o1N5l4r4P3J7h2a8j00k18a7A48a46k30R4Q5k4M0K2f1j05k95K11j14j05
452d69b5Ol25F5L6aA77O8C1b97P0j60k8N5o6j38A1K37n6b95L3K1J0J01j16K9K2
425a95M1j29O0f9k86J44M5M2n8M4o7p0O1j20Q1R6N6j01p1o0N6J5k43J12O6N3k7
398c01k73a51L9QJ3n0q6j29a05k4j08Q6j5K7j3lj05h5k99J6l7j15I2a1l7m76B2
370b04r2D64C1b2B11J44j22b62l12a22o5p7RJ03o4O3k32j24r5n89K14B71E7d83
345b47M3r21l72j93e65C67c82q21r9J40A044D02d9n516k967K063j2032K326o585
326b2760O415o675h517c20B0K57f272E75Q6N2a133A21b42R6lj283f04j515i20
306g47r8mj5k45b02o22b47N2i4l0K9GM1a04o5l42k3l6a19m0j48J00M3j46a52M7
280a05q2Q0B9J55j4J04kj12h7A29n8g3j70P4N3b7A08L16d6n6j73P2i3A8a81q7
254b68l8k9J66A76J36E2a01k26p2L6PRJ21i8m0B8b06lk07J09J3j15b01M1KM6b6
226A9BO1d3l64J22L4i4A8J99K88O8A41E7a72L2j67J5O2Q4j23k53j06j11J07j16
201g48M2E4b33d3r3l08A2K4a135j397j895p918p057p449M291e742K370o60J834
182b198b0H3a06j265L99c7n2L9J9H5M3O0P3Ne4o4C41L70l11D1e0H1P9o3eq0Aa86
153I4M8Ic8l8J5l05Q3K6P2b6l1%l5l4MjK9L7n2kk2o6j12L3J12L4L2a1j5%p9q7
121a92k5o5P2Pe3Kl24P3J22k1h6j1J7F9a20n9P7M3r6l7l8k5J5J1J14c8k1q0k7
92a66j1j20R6j22k0a04k34k92J52K12q1Ld9k2j23N2A40m0c61N3J46k3j62j5j40
67e02r6J29Hf7nF3ek24h2K4p1e9p9N1F6g1GiA42C7g2p4oB50J16a06k93J88G6b3
36B55J28A45a14l9J2n1j27M9g9Oo2o8N1j4j21A65J22E4a5j71J6f2j18j12J03K3
10a66k2L3a4o9A11K55A24a15j70m3
0c28
##PAGE= F1=-177.8215931934
##FIRST=     4597.31623039246, 4790.71341512149, -339
##DATA TABLE= (F2++(Y..Y)), PROFILE
1023c39a59M3Pj11Eb42q6a11j8%k32N2R2A24J88E0a96L3o8C1J87A1N6k0L7d9K2
996b7E0L93Q4J56B20E7a63j66P6R3j00L2L6N7j6m4k8q7J7Q9A51R5b0k91P5O4e2
968a70m8n8k5QOoJ5J06q2J19M8E6K01J12N5m3A70cj56n9m0KJ04k9A08M59R3R7
940G57P6A78a29A79J07h7k9A4M9J15K8F6C2j0J53a19J7j28j16A21D5a44K9L2n8
915a41oO1L2j97J00C9P4j0i0c5A06a98M3Lq2O4O0j36e3B28a64ak30P2d6o6Mp7
887a85g1G1A0R4P7f4L0j61l2A57J77L08O6l41a88o1A88r1a04j50R2q8o0O6O6O
861a72e8lE7c5j10j41eIg1k27h8l6k1e6j01K2M6J2c8C41Qn8la10j45i0qOK6j51
831b17e8q4l3o9P0k06J32K6N3j7M8A49E3A0a14r0f7k21J0a39j16m0nh3CJ62L3
804A98I9m4J08i3a6k90J05L5J3P4j21f9J3k8j83K8k5Q9h1k0D7a1FM22D6a08j27
777b35m3ml7q9N7J39Q1o3j39Q4k7J09n3N8m5L5C4g8j92O2L8L9j70j9LON6N3A8
747C34J13D0dj16j4k5l1h3EM2a20A07k9j7b50M6r2K9PJ07O8a1GJb1j68n1h9m9
718a38q7J8k5R3j14j21J54Ql1K5m9J5e3j38MM9m0j46K5J16f3k2j01re2j17d9D6
689f6m59K12a00L2p6O7k67q6m5a77jL6J0k6m1L5k03c8H9A7d66A49P7a35A79j7
663A62J1B3N4Q2A6c669n592K177a678f7I8J68m9C8O39A2J79d25r7b35c4n6E9R4
639A53f88K69a64q0P7j03P5m76J11a84%j127d26a58K0M3M4l874A34K05A48a87
616fl787J749e68J19a01l1mO3l5m8lL5j6o3m66K17b23P1N9r4NFJ94b77l2j58k9
589d96b30o35j485k74j631k200l582n055j054M897L855c309a163F0N8f7k83a24
570g0b0k15R1m39b02rL4j07e6A04a81c5B49B3d7k698p15a242G3C0a6j844N65c65
545B40J90g0L3k06D30K61k67I0b23b2j75K2N3G0R1p4a27r7K9j51J4O8a13j42r7
520c52j2OO4N6j0g2H3a43j66q6J76f7B10J10j09l5G1a00j47fB29a9q0B48hm0j4
493f2Jj65n1B70L81o7b22j98O0A8J34a51N5c2j25B4K2b74R6J1J9r5a02M1k4k93
467c78d4A43a48q1P2p3l1Q0e6A7a74k49J77R3L6oJ6q3Ba2aA7c9o6j58O6P1j5q8
438b29p8n2l5i3c6k35K7L3Jm7J5Q0q3K2k4K8K3k51J73R8A4f9j08o0o0a10n9j2
410a81J9A23i2D7c17N8o0k35K4J69J52k74a32E2Ec1j2o1r0M5L9n1mMg7K2q5l7
382a77o2N0j08J29r3P6C4Q9K16a68n0n5R2h2k47R4a08B7Jio87a77j5p0QJ16n5
355a93k0n32b73k18m57O7I0Q3q2O3E3a028j78J97K73A21f16B59a09A188L8m50
333G76C79g17k573a541D64e490k138G80c302r619A361K69m28e701B92j28la925
314a26q3c1a3j278N46j221d54k53k32O4q1P2a59j68Q8O3d4A5e72d7nB8c31j17
290d48O2j47a77J0k1O4nl71a63k9m9J13d5F2R3G3c7A53E9O4a7r9j10k3O7P2a4
262B17h6l5j74M5M6e0r5j9j75a60GN93j79A34b7l41oM7K8J47a5A85p3D4a17m6
236a63k89J45J30j18a26Knb8A27P4l7N4I2d90J90Kj9J57A68N12R0C52E7a55o9
211b24q0J6J4J17j13m3l77K9K2o8l1a88n0P5N9n52A7K6a502J38A12f830r527p864
187b4221l19R875K134M796b569a104J1d0j579M14a12r4L5l4R4M0m6M9A0g3C9c15
164a65A64b42f8a3ck9j4m4c2l71a96B09q9f0p4L7l05a41JK8L2m9m5l0J6K4r9l4
136b97h7j52J07A30C9b30O7j1N2J9hk5B8Kbj09j31q2J18d1A36F2a55b2fE0k4g3
107a53j53QM7J23F3ij05Ln9m6N5O4K3B0b5j56j00%q3Q5R3f2j81j11J11j23pa35
78a07j52l2J14a0k91L5m2P3J1h7K1K2m5k06J13JM9c5j83c8A13a33a2k45N0fm8
51e4E4J18J09J97j61A26Q0j9j7L3b38q4a08M0l0K2p7ML2k1J4l5k3M2o9d9q4l7
23a70p4j2A73O6a06j49P7j1K7L6j3%D6a0q6n4g4K4A24a6j53q9l4
0b92
##PAGE= F1=-182.5031008636
##FIRST=     4597.31623039246, 4790.71341512149, -438
##DATA TABLE= (F2++(Y..Y)), PROFILE
1023d38b09M5Nn1B05a9j12F2i2M3b1A75J3o4R4C6a06r1R7A33L16A69G4b3q2j72
997b77L0h8B39kN1C7h1j64o8d9K1A4a28L2a5n0j33M2pA6K24L3I7a02j31J7P5A25
968A9i4l5no1p7K8l8M2o3J27O7k7a8A19n8d9H5C6i9o9k3q4M6J5i0A7K22L33J73
939G45l40a29c1C9b07L5N4a7C5K7B4b2A9K01b3H6B0b07j2M0J3m2%ojh2b8q4LL4
909g5m2j05J2L9k52J08d7Ib05K0i1l4A14a46r5A72i2l2gn1n4n3D7J72J82j70n8
882A73a95Q4n4MhB21O11l7C37a94N2B12J17B7b21RL7L4n6R0m3M5j3Oj26l6j11
855c85J12kkM3O4o7j37Q7N9M0Q5L2IK96J79j52r0d6j62Q2L9c7n6K3k8mo8j9O8
826a21l0g5j37h9m4e5B39B6J58Gc8m9j65K2f4j59l5J18C41j06D5e0C0J45J66b9
799c9r2C8J18l5D7a13c3j04O2r2o5j6J01N7p2j7Lb3B02fj12j38l1j9a47j86k5
772c58a62e0j12j45J38f6j2j61N0a1n7K2k37M2J00K3c2q0j18j23QL7M8e4B50A5
745b45a5E7j4J0M0K12l0K89H9J26J55d2j66a02j68M7N7f0MC2J45N4a9k45L3a15
718a07r4h3K0p5j47a19B2a29j67rjJ40g8o0L1r9K5j33M3A56L39j39a61o4b2q7
692a09B18L22b05l87K00A60g5k02P9o8m3r2K6a85L2J6J2Jn5n8a12L9D7e57B34
666A24A2i2L1l5A1J12j0Ae019r801f177a38L7G9J21k5G9e49J27a43F6g6F1Q2J77
641C20L35N0e07b37d5nj31j33J11k66j06b57j27a75j86J16j1J8P2oj9901Q614
619a1459b942k548k93J755a995c04J8Ch5j4M2n2k7j0oo2m8l47b67n9R8l4K7p9
595c14a19j03j48J13j51p5J24r18j169m7j483k417l837m974J891f554L120i18
576d8cj80A70b54J21n4A69a99A06c83R7iq6j87g5H0c68a54C23H4a546m695K97
553e944K747J122A46j3b854Q88i12A76L48A98Bb63A33L31B09I0c93@a99M1J7M5
531i6kl3r5k5K0j41a57j49a44n7m6Q6P0r7j12R1l1J5h1p9a5B25M3q1k2o0j6a32
502a08K6a7E5J93K15rA04n1f1n6m8m7H8M49l3b34j57J25a0B76a01d1dj08I1h4
475b14P8rM5c6A0am9J2k4J1p8c1k7q8j3e2K2kk5k39e4LE1R8Pa27A05b4j24K3q3
444b08L9j00J09E6K0a01o4r5k08J06R9j14P7J29J9j00O9m2Qnn5O5lj54R7P3A08
416I2B3h9q5A9J2oa52C0a15L4l07J11j3k53l1K53J42j29A40mF1A4J9Ea08jH0a16
387A06D9ioq4%r8O3N5m4k0F0j7L16P9j55c80Q2a23f0l60l6J47P3K8L5k29a23m9
359a72n8L3fFd10k54b52q1m32n5a97k58A87lp9h64J04e3o41f6k66c1E0L69J00
334E19j23j38b3k35j79R4g0k8796l7670P959J5591A317N7l91d850B09e55l86a46
314a70e8A29j8aj1j200N9j86J24M04o8L49a91ln5K1Q4f7n25a21REc11mQ9k17a31
286a43l8g9a9k71h0q0q2jJ01O6j07h4fC3M2K06k6r0D4b42P1k8d4J9A27h8j44K2
258b10j11d1p1F8b53k2P0D92k23Fa10k22N1m1N4F5b3j25d8r2q4k0j42J49o6o0
232c63a22L0m8l5P7B4J36J83r4d58a96j3j17g1H5L94J34k40ij55j6o2j34Q8J11
207a77j11l4K6q1Mj35k38b39J0N6J6l60a63a1j626N28C8b495j1794j0935P385
186a7839Q912l671L828b860a035M92a64j163M99a62b1l61a42Of5k2K2j73a10l9
166a49n2d6IJ64L4i7E9a71r4J19o7f7LC5d5o4n2g6l52a37f4l5b3j31n7lK3ql71
137e70k3J40K09D04A98B7d1k2k0c7A15K11Jj01D7J62o7g9k16J46L7M9J9r9OE7
110a2o6L1m7j54K1n9J34I1j1b10A38a37o9f0a6KgB8c9r4m1j57O3b9m5p2k50J30
82b66j4M6J09N7o1L1p9O9j96R1j21O0B9M54j06Qj32c5k56k2M3J05l2h6c8j23K9
55a32k05k8a55J9d0F8P6C4g0j02h4c1H1K33a38l46J74a26M0qq6M3fE5qg2r3r7
27b62j10J33L5c2k50P4f3Da60cA01jf7l2K4j35A1h5j1l7o7i8j7n4r3q5k7
0c74
##PAGE= F1=-187.1846085338
##FIRST=     4597.31623039246, 4790.71341512149, -356
##DATA TABLE= (F2++(Y..Y)), PROFILE
1023c56a69F2a13r9A82c4m6A64J5Qp6k0a06n1o0p6a11E8k0j3L23A17c8j26O7k57
997c54P8N5g1B83O3D2A6b22m1c0A86k5e2a0G1O4B2g4m4ld4a3j24j08P1M5Le6o8
968a24o5J4rk6n4K9r5M9q1O9a32k33J03R1q6P2A4e3l6pKp6k8J8e1C7K06M49K55
939I47C54b06q1a01j20P8md7D5j6Ii4p0F4d0A02J27G6a33j21J12p6m0J7ka20e3
911a27m4k2A4a00Kd9k87n2a45O3j83J7J23p4Q7j61k6C01F7a14a6o6n1j4B7J3a17
883A6a81j12MN7N3M8iB65K18I9b12A8Q2B7h9OB1a51dA9R8l2i4n5l0r1l5L0a14
853a57J6f2l9L9a8gj53r9L0k2Pm1j6m8J37%j04J23K3M4kl6k7n9R2hF7k0h0j28
823b08Q7r3N6F8f2B03a9j34P2j45R7A00b33m5D9L62B05a5k6B0L2Q1d9j10K5b9
796G4K8D4g0pj79k3L7Kn1R8f2j60m6P7QQ5r8Rr4L9O4%j52j7a03I7a14m3a8o2p5
765a55q5Q2RL8J0K8B16j02i9l19J71C4a49P2L7j21j0B40a75M4A23E7M7m8K86N4
739C96j04L97B32J2P9b0j81g9k31h7H3nb1C8Ba56N2a9k1j24N7j34c6B05n1h4A01
711G5a20j45p5N1Be6m8Qj8j90m4R7A10J35Ea50pIb11e8A72b64l26M7b9n5k22j7
683c23M4J30n8m8k28K24A26k4b4j50J4g4A89e6o81d3G7a06l6O4k877c0ln5p5n85
657g48A44b22j4164E41k34dC5cj328K55J25A22m3L1K2J57L21M3c51Q4A6K80g3
633c99f9k72r5J18r28b27j89J29mJ7O1j1m9M4Q3E9b042j814J867a25mk54a83f2
608g6m1k4K9e3l5l83J34M0o6k51K48J48k4j16j0r0K06a13l30P1l09j63j699j525
584d068j653m650m748O964a37r0i5b7A66c08o2C38F5a42f4j81i9l5k92a41j03
563b44p5a27F8c20b4A71b650j290J101l024J479j087K452fn456O91J33J658b22
543A69a66l43a77C33j07l7b84a21j77M3J6O1J7L4k1n8p5N2i2j93J41j86cA44a65
517a70r8P8p2p0a32f5H3L9kO8J95%j09r7K01oA57a31q5e6A15n5h7j77P4K7j1l1
489b05C25l7b73j50K03A10N2a67M0C6d5E3a52a0C4h1p3n8R4Ll3J0l2o8a17c0q
462c8@A82H0i9QeA0L6P0J86J61L9a87C18l3hj11l8jp2L1d1a7j63J2p7j93M4J46
433b48Q8L5n1j00M6Q8L7m1q6j00R6Q1k19Q5J0e8B6J41QE4B0J11e6k11c7G7g2l53
405d25J39J2k91NK38J47r6J29d3HN0N6ra1q3E1a46C57n4CN9e8gj49b2pKj51B40
375G5K25M13O4b0k68Q9A17M2h19J5c40D3Db15a06o8r2oi4a0m2Oj22o1m74j41c64
347g16L47J50i9p92J60a70n6j4JO5N9E6B1e7b5k19m2o2j01J23@d897k086j6016
323b2999h127G38e411A79b3r26k85c29N7N8P8OK0e5j163r72K18P85M87L36Ea80
300i3k5k6k11J49e5k71a53g0j31m2k2j28J70g1k40G3J1g6B1f6o9m2P2M5fn9G8
272D2a67Fc9o8j7r5j9P3P7IJ21a07j44P3c4k23a27G6b83p3n9A24d4k18l7O9e0
244a15p5d0q1l56J22O1j4N6r3J46k1j63a83P5k03n1a7B0J75H2J44a50C3g7k76
219c53a27L6A21O5C2a92o0J3K7nQ9q1j13l8K2J1o4m6l31a72K3f5Rj02O8j6j326
192a432a16j32l373j7570n397g185b20m811O64J470i35a26k47r38c74c1G4d22
173b46a18k1j82R2j63R4J00N9F9R6J35J9a53j5L9A83P0Pk4I5J14aj80k09a34K5
147a09L6a9m0j2pl4m9L6j53l46n7K19B06K1A01K7J16J3d1G1K4P1L4r8Ic9A67P8
119B45b25i7r5j95J45R2q8h4p7n0L9m5j17L6lJ06g1b6k55A05a38j10d5j1J4n0
93i2m5n2j9Lj02J06H2e7j24k17O9Q4A3J16k8L9E3j4a83j37f4k50J8B75K19J20
67F14j61j24b5l54K5J05a02q1K5O5k42P1o1r4J03J45m6p8k9m6Q2m9K4L3J05B4
40b38j75J12J01i5A6P8J08L2r3A6a43j34o4j25N4J46J12k26J42J05e7m7I2K48
16C40L4H6L2a13j31F2b9m8E1a32K0j73K7q9l3k9
0d09
##PAGE= F1=-191.866116204
##FIRST=     4597.31623039246, 4790.71341512149, -221
##DATA TABLE= (F2++(Y..Y)), PROFILE
1023b21R5e3A3a88B3b00N8I7P8l8C2c5k04J0l6K1O7c3LMH9f4oj29K7k74J28N3
995b65Q5E3L04I5L6a49m9H9K78o5D9a14A06R8K5A1d2l2l2k2n2j19M6P3l7J01M9
968f7c1o0l0q3q1mq1R5j71N1a27j64M8m5m8J40A25A8f3j26L5r4J07qf7jB7K75
940C02J54F5b00j27J22o2a28m7c0A2f4k4K0l31J82N1P2G3B2a80l96b14B1a15q4
915a99l3R8M5q0j02OA93K2E7A2b54p8J07Q9k23K4P4R7lk00j03a21f0j20O1m6K
888a63O6A30o4c66k4o2J21o5O0R7J3Q1N7M3p0j33a05n4e8H8a8A92e3A35J37n3
862B19J57K0c9k46J12e8q1q8qJ10b8k4K2fA5a19j07k8m3Lj6O3Mm3a00j30P4qK9
833a35j4m9o0j5ra07A11R1F0@A54d8A06J15a32a2j62fj63e3J9I5c01p9A1O76C11
805B7R4a23A40a9j51j00J05Q1D9M9A2a17e6j61NO7q2j35K8a19j58N3Q2j46Q9K5
779a74lnbF0c02j25L9a69A53gk26q6N6k5rQ8l7p4j8B39J67A37K0b97j19j04K14
752c06P6h2ml7C2J67J61n3b4j2j93H0M4A9N5K2N3Ha03j64a02k36d0j03K4k8P0
725g7r8J8L5L4b2j37k0j26Q7i8Ff5C2a38o7j38j00J48c2n1o3PK0j70o3o0g9l99
697d78Q5J83j6N4j47J13g9k46k75m5b21M1j92kJa41J6k76o3K10H7j4f1j70L6c4
670C19g40l01b38dk16M1Q1M2j0qj157b92Q0o5A81N59e794E73B5c1H9a716P38a98
645b04j5J8j9M6E8J45d28o6a30D74a6m47D6b77m5J11j641F9b17J0l6k0a16C8j5
620B3h3k22a44g0m479b016b2k50j124e1j5m1kk40J48j27J08n19b39o5o8J84e5
596D9bm48J25j96K18e8l01a58B15De33k523j981n475m432g241b26J4R7a8B67f0
573a51B28e2j49qj23j34b24k77K45j86J00J36B93a21C94d40k370a116N53l035
553c598M02k395b104a40m088k82J667l87J059E9h1m19L7A2e4k5q1o9p2P1K5P1
531a34f4A7a9j21p6a00E0c01J07k7B4b46k37b24K6f0o0j11e9q8F7HCJ21J99A49
504B96r3J16n6B9b48k3i0F1i5j22j25J25ML6o6C0j1b68j90K26C3a5j88m1hq3n3
477a44p7F5K71o2E4a64c5l0o0J3l5j8L8c7k6A28K14j4A21a02GK44A0c0l7B81J
450B82b02C57l5A31F5DOa42j46j2k2j2R9p3n6q4J35a48nn5q4M1Jk8qKJ6NN5k07
420d15J27l1D3c7J8j65O6o6e4l02Pb8A75a6m65J50M1k90l9K47J43n0n7J28B8K6
394E4a77k3P8k5fj34C26K07B27rd7k10j16a45j6K2oB72H2M3L79M8B61b50p0B26
367B51c29j69K42P8Jk35a41m0n6n9b4C12O0j49e0o9m66k96a92m93l19c37k6n77
343i40m70M91c86J78l12e4K4A4a77j60P9o89d00n5j20J03J86o2J10A58J15d646
320a010cj05r9q32c89J27K4K6k0L4Q2j614l11l52f97c08A23a3n13k7a80m58a45
296b85B0b54M3k2L5rj17l7j24K05I4J5b7n4nM1C5i5K4L4E1M5B3a85j90J66nn6
268b70j17a21J7M2q3kM4m3j56J30c0k8j65k0m0j21p6g4j43j53L8a60m2p2M5k10
242d39J94k36R2N0l9M0p6M6O1p8a29F7b29j57aD9L4b47G9L7mD7a44k8j11J4n1
215c20q4l1R1M9O8C9A6b33l75b46m2j2n5k86J90a35A06Q9H5a26L8j188M7a37j64
190c01j15j12J08J58h4p5O2k414g39io2j405c51A9c3m18J56J06J0j50J0j41J31
167c29q1b00A44n5N9K2b12J9A69N84l47A84R9H0O3J42c42k02J21e7m8M5b2l8o
142f6q5o8M3j82k56n9J98B97q4p3J21J55A72i1c5J7G0a05j09J01J2A15K76a93
117a62o3k13J17a12N1D5%e4l2j15j89K9J03a12j13N8q6D8a21j34R3m4f1A75A5
91b70Kj6ji3K6l32O2n2p6a88B79m2P6Rj41d4k49N5R7q6q0B61K03J27b01l12J82
64c31n7M9R6g6j33K8j35j57J42Qq0K1C1J24h0j97p1J17K7l2M2N5j09j10m2R2a13
36C5M2a36E5K23b44N4N3j80o3j27j3b46O9j21m3P8a03c4A07M24k03@a1kk02A33
9C66n7j36o5e9k69L6q2l5K2
0c87
##END NTUPLES=nD NMR SPECTRUM
##END=
